gem5 Simulator System.  http://gem5.org
gem5 is copyrighted software; use the --copyright option for details.

gem5 compiled May 28 2020 17:09:03
gem5 started May 28 2020 17:10:58
gem5 executing on debian-gnu-linux-vm, pid 20887
command line: build/X86/gem5.opt --debug-flag=Thread,MITTSStats configs/example/se.py --cpu-type DerivO3CPU --caches --l2cache -n 2 --multi_prog

['./tests/test-progs/hello/bin/x86/linux/hello', './a.out']
./tests/test-progs/hello/bin/x86/linux/hello
./a.out
Global frequency set at 1000000000000 ticks per second
system.cpu0.dcache.cpu_side
system.cpu0.dtb_walker_cache.cpu_side
system.cpu0.icache.cpu_side
system.cpu0.itb_walker_cache.cpu_side
system.cpu1.dcache.cpu_side
system.cpu1.dtb_walker_cache.cpu_side
system.cpu1.icache.cpu_side
system.cpu1.itb_walker_cache.cpu_side
system.l2.cpu_side
      0: system.cpu0: activate contextId 0
      0: system.cpu1: activate contextId 1
**** REAL SIMULATION ****
  11500: system.membus: Packet Context ID: 0
  13000: system.membus: Packet Context ID: 1
 103000: system.membus: Packet Context ID: 0
 106000: system.membus: Packet Context ID: 0
 108500: system.membus: Packet Context ID: 1
 110500: system.membus: Packet Context ID: 1
 112000: system.membus: Packet Context ID: 1
 113000: system.membus: Packet Context ID: 1
 197500: system.membus: Packet Context ID: 0
 201500: system.membus: Packet Context ID: 0
 215000: system.membus: Packet Context ID: 1
 224000: system.membus: Packet Context ID: 1
 271500: system.membus: Packet Context ID: 0
 282000: system.membus: Packet Context ID: 0
 288000: system.membus: Packet Context ID: 1
 300500: system.membus: Packet Context ID: 1
 302000: system.membus: Packet Context ID: 1
 345500: system.membus: Packet Context ID: 0
 348500: system.membus: Packet Context ID: 0
 356000: system.membus: Packet Context ID: 0
 360500: system.membus: Packet Context ID: 1
 381000: system.membus: Packet Context ID: 1
 450500: system.membus: Packet Context ID: 0
 452000: system.membus: Packet Context ID: 0
 456000: system.membus: Packet Context ID: 0
 465500: system.membus: Packet Context ID: 1
 475500: system.membus: Packet Context ID: 1
 488000: system.membus: Packet Context ID: 1
 528500: system.membus: Packet Context ID: 0
 530000: system.membus: Packet Context ID: 0
 531000: system.membus: Packet Context ID: 0
 559000: system.membus: Packet Context ID: 0
 564000: system.membus: Packet Context ID: 0
 574000: system.membus: Packet Context ID: 1
 579000: system.membus: Packet Context ID: 0
 580000: system.membus: Packet Context ID: 1
 584500: system.membus: Packet Context ID: 1
 590500: system.membus: Packet Context ID: 0
 603500: system.membus: Packet Context ID: 0
 723000: system.membus: Packet Context ID: 1
 759000: system.membus: Packet Context ID: 0
 777000: system.membus: Packet Context ID: 0
 796000: system.membus: Packet Context ID: 1
 797500: system.membus: Packet Context ID: 1
 799000: system.membus: Packet Context ID: 1
 801000: system.membus: Packet Context ID: 1
 804500: system.membus: Packet Context ID: 1
 806500: system.membus: Packet Context ID: 1
 861500: system.membus: Packet Context ID: 0
 897000: system.membus: Packet Context ID: 1
 904500: system.membus: Packet Context ID: 1
 907000: system.membus: Packet Context ID: 1
 908000: system.membus: Packet Context ID: 1
 934500: system.membus: Packet Context ID: 0
 940500: system.membus: Packet Context ID: 0
 942000: system.membus: Packet Context ID: 1
 979500: system.membus: Packet Context ID: 1
1008500: system.membus: Packet Context ID: 0
1031000: system.membus: Packet Context ID: 0
1059000: system.membus: Packet Context ID: 1
1085500: system.membus: Packet Context ID: 1
1092500: system.membus: Packet Context ID: 0
1104000: system.membus: Packet Context ID: 0
1174500: system.membus: Packet Context ID: 1
1176000: system.membus: Packet Context ID: 1
1204000: system.membus: Packet Context ID: 1
1250000: system.membus: Packet Context ID: 0
1252000: system.membus: Packet Context ID: 1
1297500: system.membus: Packet Context ID: 1
1299000: system.membus: Packet Context ID: 1
1300000: system.membus: Packet Context ID: 1
1312000: system.membus: Packet Context ID: 1
1315000: system.membus: Packet Context ID: 1
1370000: system.membus: Packet Context ID: 0
1387500: system.membus: Packet Context ID: 0
1407000: system.membus: Packet Context ID: 1
1444500: system.membus: Packet Context ID: 0
1480500: system.membus: Packet Context ID: 1
1482000: system.membus: Packet Context ID: 1
1483000: system.membus: Packet Context ID: 1
1503500: system.membus: Packet Context ID: 1
1517000: system.membus: Packet Context ID: 0
1519500: system.membus: Packet Context ID: 1
1567000: system.membus: Packet Context ID: 1
1576000: system.membus: Packet Context ID: 1
1626000: system.membus: Packet Context ID: 0
1629000: system.membus: Packet Context ID: 1
1637000: system.membus: Packet Context ID: 0
1639000: system.membus: Packet Context ID: 1
1650000: system.membus: Packet Context ID: 1
1654000: system.membus: Packet Context ID: 1
1714000: system.membus: Packet Context ID: 0
1718000: system.membus: Packet Context ID: 0
1728000: system.membus: Packet Context ID: 1
1765500: system.membus: Packet Context ID: 1
1775000: system.membus: Packet Context ID: 1
1805500: system.membus: Packet Context ID: 0
1812000: system.membus: Packet Context ID: 1
1813000: system.membus: Packet Context ID: 0
1851000: system.membus: Packet Context ID: 1
1879500: system.membus: Packet Context ID: 0
1881500: system.membus: Packet Context ID: 0
1938500: system.membus: Packet Context ID: 1
1954000: system.membus: Packet Context ID: 1
1964000: system.membus: Packet Context ID: 1
1965000: system.membus: Packet Context ID: 1
1967500: system.membus: Packet Context ID: 0
1969500: system.membus: Packet Context ID: 0
1977000: system.membus: Packet Context ID: 0
1981000: system.membus: Packet Context ID: 0
1990500: system.membus: Packet Context ID: 0
2030000: system.membus: Packet Context ID: 1
2051000: system.membus: Packet Context ID: 1
2055500: system.membus: Packet Context ID: 1
2091000: system.membus: Packet Context ID: 0
2095500: system.membus: Packet Context ID: 0
2113000: system.membus: Packet Context ID: 1
2169500: system.membus: Packet Context ID: 0
2220000: system.membus: Packet Context ID: 1
2257000: system.membus: Packet Context ID: 0
2258500: system.membus: Packet Context ID: 0
2299000: system.membus: Packet Context ID: 1
2300000: system.membus: Packet Context ID: 1
2365000: system.membus: Packet Context ID: 0
2385500: system.membus: Packet Context ID: 1
2390000: system.membus: Packet Context ID: 1
2459500: system.membus: Packet Context ID: 1
2462000: system.membus: Packet Context ID: 0
2463000: system.membus: Packet Context ID: 1
2469000: system.membus: Packet Context ID: 1
2533000: system.membus: Packet Context ID: 1
2537000: system.membus: Packet Context ID: 0
2548000: system.membus: Packet Context ID: 1
2606500: system.membus: Packet Context ID: 1
2618500: system.membus: Packet Context ID: 0
2621500: system.membus: Packet Context ID: 1
2680000: system.membus: Packet Context ID: 1
2682000: system.membus: Packet Context ID: 1
2720500: system.membus: Packet Context ID: 0
2724000: system.membus: Packet Context ID: 0
2725000: system.membus: Packet Context ID: 1
2731500: system.membus: Packet Context ID: 0
2753500: system.membus: Packet Context ID: 1
2755000: system.membus: Packet Context ID: 1
2764500: system.membus: Packet Context ID: 1
2774000: system.membus: Packet Context ID: 1
2775500: system.membus: Packet Context ID: 1
2833000: system.membus: Packet Context ID: 1
2834000: system.membus: Packet Context ID: 0
2838500: system.membus: Packet Context ID: 0
2870000: system.membus: Packet Context ID: 1
2885500: system.membus: Packet Context ID: 1
2913500: system.membus: Packet Context ID: 0
2915000: system.membus: Packet Context ID: 0
2959000: system.membus: Packet Context ID: 1
3020000: system.membus: Packet Context ID: 0
3070000: system.membus: Packet Context ID: 1
3080500: system.membus: Packet Context ID: 1
3092000: system.membus: Packet Context ID: 1
3121000: system.membus: Packet Context ID: 0
3172500: system.membus: Packet Context ID: 0
3208000: system.membus: Packet Context ID: 1
3245500: system.membus: Packet Context ID: 0
3248000: system.membus: Packet Context ID: 1
3295000: system.membus: Packet Context ID: 1
3324500: system.membus: Packet Context ID: 0
3327000: system.membus: Packet Context ID: 0
3432000: system.membus: Packet Context ID: 0
3440000: system.membus: Packet Context ID: 1
3474500: system.membus: Packet Context ID: 1
3506500: system.membus: Packet Context ID: 0
3517000: system.membus: Packet Context ID: 0
3527000: system.membus: Packet Context ID: 0
3599000: system.membus: Packet Context ID: 1
3675000: system.membus: Packet Context ID: 0
3758500: system.membus: Packet Context ID: 1
3775500: system.membus: Packet Context ID: 0
3859000: system.membus: Packet Context ID: 1
3865500: system.membus: Packet Context ID: 0
3867000: system.membus: Packet Context ID: 0
3869000: system.membus: Packet Context ID: 0
3965000: system.membus: Packet Context ID: 1
3966000: system.membus: Packet Context ID: 1
3967500: system.membus: Packet Context ID: 1
3982500: system.membus: Packet Context ID: 0
3984000: system.membus: Packet Context ID: 0
3985000: system.membus: Packet Context ID: 0
4058000: system.membus: Packet Context ID: 1
4077500: system.membus: Packet Context ID: 1
4090000: system.membus: Packet Context ID: 0
4136000: system.membus: Packet Context ID: 0
4151000: system.membus: Packet Context ID: 1
4163000: system.membus: Packet Context ID: 0
4165000: system.membus: Packet Context ID: 0
4168000: system.membus: Packet Context ID: 0
4241500: system.membus: Packet Context ID: 1
4255500: system.membus: Packet Context ID: 0
4315500: system.membus: Packet Context ID: 1
4324500: system.membus: Packet Context ID: 1
4357000: system.membus: Packet Context ID: 0
4360500: system.membus: Packet Context ID: 0
4425500: system.membus: Packet Context ID: 1
4427000: system.membus: Packet Context ID: 1
4445500: system.membus: Packet Context ID: 1
4454500: system.membus: Packet Context ID: 1
4469500: system.membus: Packet Context ID: 0
4554000: system.membus: Packet Context ID: 1
4565000: system.membus: Packet Context ID: 1
4587000: system.membus: Packet Context ID: 0
4592500: system.membus: Packet Context ID: 0
4666000: system.membus: Packet Context ID: 1
4671500: system.membus: Packet Context ID: 0
4673000: system.membus: Packet Context ID: 1
4683000: system.membus: Packet Context ID: 0
4739000: system.membus: Packet Context ID: 1
4752000: system.membus: Packet Context ID: 1
4757000: system.membus: Packet Context ID: 0
4761500: system.membus: Packet Context ID: 0
4763000: system.membus: Packet Context ID: 0
4787500: system.membus: Packet Context ID: 0
4812000: system.membus: Packet Context ID: 1
4824000: system.membus: Packet Context ID: 1
4835000: system.membus: Packet Context ID: 0
4845000: system.membus: Packet Context ID: 0
4894000: system.membus: Packet Context ID: 1
4898000: system.membus: Packet Context ID: 1
4900000: system.membus: Packet Context ID: 1
4907000: system.membus: Packet Context ID: 0
4945500: system.membus: Packet Context ID: 0
4999500: system.membus: Packet Context ID: 1
5005000: system.membus: Packet Context ID: 1
5008000: system.membus: Packet Context ID: 0
5019500: system.membus: Packet Context ID: 0
5027500: system.membus: Packet Context ID: 0
5077000: system.membus: Packet Context ID: 1
5108000: system.membus: Packet Context ID: 1
5111000: system.membus: Packet Context ID: 0
5125500: system.membus: Packet Context ID: 0
5135500: system.membus: Packet Context ID: 0
5150500: system.membus: Packet Context ID: 1
5152500: system.membus: Packet Context ID: 1
5219000: system.membus: Packet Context ID: 0
5226000: system.membus: Packet Context ID: 0
5232000: system.membus: Packet Context ID: 1
5241500: system.membus: Packet Context ID: 1
5300000: system.membus: Packet Context ID: 0
5301000: system.membus: Packet Context ID: 0
5315000: system.membus: Packet Context ID: 1
5320000: system.membus: Packet Context ID: 1
5381000: system.membus: Packet Context ID: 0
5387000: system.membus: Packet Context ID: 0
5393000: system.membus: Packet Context ID: 1
5397000: system.membus: Packet Context ID: 1
5455000: system.membus: Packet Context ID: 0
5464000: system.membus: Packet Context ID: 0
5474500: system.membus: Packet Context ID: 1
5478500: system.membus: Packet Context ID: 1
5483000: system.membus: Packet Context ID: 1
5484000: system.membus: Packet Context ID: 1
5537500: system.membus: Packet Context ID: 0
5540500: system.membus: Packet Context ID: 0
5542000: system.membus: Packet Context ID: 0
5549000: system.membus: Packet Context ID: 1
5559000: system.membus: Packet Context ID: 1
5616500: system.membus: Packet Context ID: 0
5623000: system.membus: Packet Context ID: 0
5627000: system.membus: Packet Context ID: 0
5631000: system.membus: Packet Context ID: 1
5634500: system.membus: Packet Context ID: 1
5696000: system.membus: Packet Context ID: 0
5700500: system.membus: Packet Context ID: 0
5735500: system.membus: Packet Context ID: 1
5741000: system.membus: Packet Context ID: 1
5775000: system.membus: Packet Context ID: 0
5779000: system.membus: Packet Context ID: 0
5823500: system.membus: Packet Context ID: 1
5831000: system.membus: Packet Context ID: 1
5833500: system.membus: Packet Context ID: 1
5856000: system.membus: Packet Context ID: 0
5921000: system.membus: Packet Context ID: 1
5943000: system.membus: Packet Context ID: 0
5993500: system.membus: Packet Context ID: 1
6022000: system.membus: Packet Context ID: 0
6068000: system.membus: Packet Context ID: 1
6072500: system.membus: Packet Context ID: 1
6101000: system.membus: Packet Context ID: 0
6151500: system.membus: Packet Context ID: 1
6153000: system.membus: Packet Context ID: 1
6154000: system.membus: Packet Context ID: 1
6180000: system.membus: Packet Context ID: 0
6258000: system.membus: Packet Context ID: 1
6259000: system.membus: Packet Context ID: 1
6270000: system.membus: Packet Context ID: 0
6341500: system.membus: Packet Context ID: 1
6343000: system.membus: Packet Context ID: 1
6344000: system.membus: Packet Context ID: 1
6349000: system.membus: Packet Context ID: 0
6418000: system.membus: Packet Context ID: 1
6429000: system.membus: Packet Context ID: 1
6441000: system.membus: Packet Context ID: 0
6491000: system.membus: Packet Context ID: 1
6492500: system.membus: Packet Context ID: 1
6500000: system.membus: Packet Context ID: 1
6502000: system.membus: Packet Context ID: 1
6503000: system.membus: Packet Context ID: 1
6520000: system.membus: Packet Context ID: 0
6552000: system.membus: Packet Context ID: 1
6579500: system.membus: Packet Context ID: 1
6589000: system.membus: Packet Context ID: 1
6592000: system.membus: Packet Context ID: 1
6603000: system.membus: Packet Context ID: 0
6667000: system.membus: Packet Context ID: 1
6672000: system.membus: Packet Context ID: 1
6680500: system.membus: Packet Context ID: 1
6696000: system.membus: Packet Context ID: 0
6748000: system.membus: Packet Context ID: 1
6760500: system.membus: Packet Context ID: 1
6764500: system.membus: Packet Context ID: 1
6775000: system.membus: Packet Context ID: 0
6821000: system.membus: Packet Context ID: 1
6852500: system.membus: Packet Context ID: 1
6857500: system.membus: Packet Context ID: 1
6865000: system.membus: Packet Context ID: 0
6896000: system.membus: Packet Context ID: 1
6935500: system.membus: Packet Context ID: 1
6945000: system.membus: Packet Context ID: 0
6956500: system.membus: Packet Context ID: 1
6959500: system.membus: Packet Context ID: 1
6961500: system.membus: Packet Context ID: 1
6971000: system.membus: Packet Context ID: 1
7024000: system.membus: Packet Context ID: 0
7031000: system.membus: Packet Context ID: 1
7103000: system.membus: Packet Context ID: 0
7105000: system.membus: Packet Context ID: 1
7106000: system.membus: Packet Context ID: 1
7181000: system.membus: Packet Context ID: 1
7182000: system.membus: Packet Context ID: 0
7187500: system.membus: Packet Context ID: 1
7278000: system.membus: Packet Context ID: 1
7279000: system.membus: Packet Context ID: 0
7287000: system.membus: Packet Context ID: 1
7288500: system.membus: Packet Context ID: 1
7297500: system.membus: Packet Context ID: 1
7362000: system.membus: Packet Context ID: 0
7371500: system.membus: Packet Context ID: 1
7441000: system.membus: Packet Context ID: 0
7445500: system.membus: Packet Context ID: 1
7447000: system.membus: Packet Context ID: 1
7450500: system.membus: Packet Context ID: 1
7455000: system.membus: Packet Context ID: 1
7473500: system.membus: Packet Context ID: 1
7520000: system.membus: Packet Context ID: 0
7568500: system.membus: Packet Context ID: 1
7590500: system.membus: Packet Context ID: 1
7598500: system.membus: Packet Context ID: 1
7600000: system.membus: Packet Context ID: 0
7664500: system.membus: Packet Context ID: 1
7683000: system.membus: Packet Context ID: 0
7685500: system.membus: Packet Context ID: 1
7716000: system.membus: Packet Context ID: 1
7717000: system.membus: Packet Context ID: 1
7762000: system.membus: Packet Context ID: 0
7786500: system.membus: Packet Context ID: 1
7809500: system.membus: Packet Context ID: 1
7815500: system.membus: Packet Context ID: 1
7838500: system.membus: Packet Context ID: 1
7841000: system.membus: Packet Context ID: 0
8162000: system.membus: Packet Context ID: 1
8164500: system.membus: Packet Context ID: 1
8214000: system.membus: Packet Context ID: 0
8263500: system.membus: Packet Context ID: 1
8321000: system.membus: Packet Context ID: 0
8365500: system.membus: Packet Context ID: 1
8367500: system.membus: Packet Context ID: 1
8428000: system.membus: Packet Context ID: 0
8438000: system.membus: Packet Context ID: 0
8440500: system.membus: Packet Context ID: 0
8471000: system.membus: Packet Context ID: 1
8474500: system.membus: Packet Context ID: 1
8479000: system.membus: Packet Context ID: 1
8535000: system.membus: Packet Context ID: 0
8542000: system.membus: Packet Context ID: 0
8589500: system.membus: Packet Context ID: 1
8609500: system.membus: Packet Context ID: 1
8619500: system.membus: Packet Context ID: 1
8642000: system.membus: Packet Context ID: 0
8643000: system.membus: Packet Context ID: 0
8654500: system.membus: Packet Context ID: 0
8688000: system.membus: Packet Context ID: 0
8695500: system.membus: Packet Context ID: 1
8697500: system.membus: Packet Context ID: 1
8761000: system.membus: Packet Context ID: 0
8768500: system.membus: Packet Context ID: 0
8770000: system.membus: Packet Context ID: 1
8792000: system.membus: Packet Context ID: 1
8793000: system.membus: Packet Context ID: 1
8796000: system.membus: Packet Context ID: 1
8800000: system.membus: Packet Context ID: 1
8841000: system.membus: Packet Context ID: 0
8869500: system.membus: Packet Context ID: 1
8880000: system.membus: Packet Context ID: 1
8897000: system.membus: Packet Context ID: 1
8899500: system.membus: Packet Context ID: 1
8901000: system.membus: Packet Context ID: 1
8914500: system.membus: Packet Context ID: 0
8952000: system.membus: Packet Context ID: 1
9001500: system.membus: Packet Context ID: 1
9010500: system.membus: Packet Context ID: 0
9014500: system.membus: Packet Context ID: 0
9076500: system.membus: Packet Context ID: 1
9088500: system.membus: Packet Context ID: 0
9097500: system.membus: Packet Context ID: 1
9162500: system.membus: Packet Context ID: 0
9165000: system.membus: Packet Context ID: 0
9170500: system.membus: Packet Context ID: 1
9188500: system.membus: Packet Context ID: 1
9191500: system.membus: Packet Context ID: 1
9193000: system.membus: Packet Context ID: 1
9236500: system.membus: Packet Context ID: 0
9253000: system.membus: Packet Context ID: 0
9291000: system.membus: Packet Context ID: 1
9296500: system.membus: Packet Context ID: 1
9343500: system.membus: Packet Context ID: 0
9382000: system.membus: Packet Context ID: 1
9445500: system.membus: Packet Context ID: 0
9447000: system.membus: Packet Context ID: 0
9449500: system.membus: Packet Context ID: 0
9456000: system.membus: Packet Context ID: 1
9461000: system.membus: Packet Context ID: 1
9560000: system.membus: Packet Context ID: 1
9570000: system.membus: Packet Context ID: 1
9609500: system.membus: Packet Context ID: 0
9617500: system.membus: Packet Context ID: 0
9634000: system.membus: Packet Context ID: 1
9691000: system.membus: Packet Context ID: 0
9720000: system.membus: Packet Context ID: 1
9731500: system.membus: Packet Context ID: 1
9765000: system.membus: Packet Context ID: 0
9793000: system.membus: Packet Context ID: 1
9827000: system.membus: Packet Context ID: 1
9839000: system.membus: Packet Context ID: 0
9866000: system.membus: Packet Context ID: 1
9926500: system.membus: Packet Context ID: 0
9938000: system.membus: Packet Context ID: 1
9939500: system.membus: Packet Context ID: 1
9941000: system.membus: Packet Context ID: 0
9942000: system.membus: Packet Context ID: 1
10001000: system.membus: Packet Context ID: 0
10004000: system.membus: Packet Context ID: 0
10011500: system.membus: Packet Context ID: 1
10013000: system.membus: Packet Context ID: 1
10054000: system.membus: Packet Context ID: 1
10079000: system.membus: Packet Context ID: 0
10087000: system.membus: Packet Context ID: 1
10131000: system.membus: Packet Context ID: 1
10152000: system.membus: Packet Context ID: 0
10161000: system.membus: Packet Context ID: 1
10167500: system.membus: Packet Context ID: 1
10177000: system.membus: Packet Context ID: 0
10184000: system.membus: Packet Context ID: 0
10220500: system.membus: Packet Context ID: 0
10241500: system.membus: Packet Context ID: 1
10256000: system.membus: Packet Context ID: 1
10262500: system.membus: Packet Context ID: 1
10322000: system.membus: Packet Context ID: 0
10339000: system.membus: Packet Context ID: 1
10345000: system.membus: Packet Context ID: 1
10361000: system.membus: Packet Context ID: 0
10390000: system.membus: Packet Context ID: 0
10392500: system.membus: Packet Context ID: 0
10395500: system.membus: Packet Context ID: 0
10418000: system.membus: Packet Context ID: 1
10491000: system.membus: Packet Context ID: 1
10493000: system.membus: Packet Context ID: 1
10506000: system.membus: Packet Context ID: 0
10564000: system.membus: Packet Context ID: 1
10565500: system.membus: Packet Context ID: 1
10570000: system.membus: Packet Context ID: 0
10591000: system.membus: Packet Context ID: 0
10606500: system.membus: Packet Context ID: 0
10615000: system.membus: Packet Context ID: 0
10616000: system.membus: Packet Context ID: 0
10637500: system.membus: Packet Context ID: 1
10639000: system.membus: Packet Context ID: 1
10729500: system.membus: Packet Context ID: 1
10731500: system.membus: Packet Context ID: 1
10734500: system.membus: Packet Context ID: 0
10804000: system.membus: Packet Context ID: 1
10839500: system.membus: Packet Context ID: 0
10877500: system.membus: Packet Context ID: 1
10879000: system.membus: Packet Context ID: 1
10923000: system.membus: Packet Context ID: 0
10924000: system.membus: Packet Context ID: 0
10951000: system.membus: Packet Context ID: 1
10978500: system.membus: Packet Context ID: 1
10980000: system.membus: Packet Context ID: 0
11031000: system.membus: Packet Context ID: 0
11036000: system.membus: Packet Context ID: 1
11052000: system.membus: Packet Context ID: 0
11055500: system.membus: Packet Context ID: 0
11058000: system.membus: Packet Context ID: 0
11139000: system.membus: Packet Context ID: 1
11155500: system.membus: Packet Context ID: 0
11177000: system.membus: Packet Context ID: 1
11179500: system.membus: Packet Context ID: 0
11213000: system.membus: Packet Context ID: 1
11217000: system.membus: Packet Context ID: 1
11240000: system.membus: Packet Context ID: 0
11257500: system.membus: Packet Context ID: 0
11269000: system.membus: Packet Context ID: 0
11318500: system.membus: Packet Context ID: 1
11327500: system.membus: Packet Context ID: 1
11357500: system.membus: Packet Context ID: 0
11401000: system.membus: Packet Context ID: 0
11420500: system.membus: Packet Context ID: 1
11422000: system.membus: Packet Context ID: 0
11423500: system.membus: Packet Context ID: 1
11560500: system.membus: Packet Context ID: 1
11564500: system.membus: Packet Context ID: 1
11576500: system.membus: Packet Context ID: 0
11671000: system.membus: Packet Context ID: 0
11673500: system.membus: Packet Context ID: 1
11675500: system.membus: Packet Context ID: 1
11745000: system.membus: Packet Context ID: 0
11751000: system.membus: Packet Context ID: 1
11800000: system.membus: Packet Context ID: 1
11818500: system.membus: Packet Context ID: 0
11841500: system.membus: Packet Context ID: 0
11846500: system.membus: Packet Context ID: 0
11872500: system.membus: Packet Context ID: 1
11876500: system.membus: Packet Context ID: 1
11964500: system.membus: Packet Context ID: 0
11977000: system.membus: Packet Context ID: 1
12037500: system.membus: Packet Context ID: 0
12051000: system.membus: Packet Context ID: 1
12054000: system.membus: Packet Context ID: 1
12112000: system.membus: Packet Context ID: 0
12141500: system.membus: Packet Context ID: 1
12150500: system.membus: Packet Context ID: 1
12214500: system.membus: Packet Context ID: 0
12216000: system.membus: Packet Context ID: 1
12217000: system.membus: Packet Context ID: 0
12321500: system.membus: Packet Context ID: 1
12327000: system.membus: Packet Context ID: 0
12329500: system.membus: Packet Context ID: 1
12402500: system.membus: Packet Context ID: 0
12406000: system.membus: Packet Context ID: 0
12410000: system.membus: Packet Context ID: 1
12413500: system.membus: Packet Context ID: 1
12415000: system.membus: Packet Context ID: 1
12494000: system.membus: Packet Context ID: 0
12510000: system.membus: Packet Context ID: 0
12551500: system.membus: Packet Context ID: 1
12573500: system.membus: Packet Context ID: 1
12597500: system.membus: Packet Context ID: 0
12599000: system.membus: Packet Context ID: 0
12653500: system.membus: Packet Context ID: 1
12658000: system.membus: Packet Context ID: 1
12671000: system.membus: Packet Context ID: 0
12711000: system.membus: Packet Context ID: 0
12727500: system.membus: Packet Context ID: 1
12738000: system.membus: Packet Context ID: 1
12801500: system.membus: Packet Context ID: 1
12803000: system.membus: Packet Context ID: 1
12804000: system.membus: Packet Context ID: 1
12807000: system.membus: Packet Context ID: 0
12812500: system.membus: Packet Context ID: 0
12875500: system.membus: Packet Context ID: 1
12913500: system.membus: Packet Context ID: 1
12949500: system.membus: Packet Context ID: 1
12970000: system.membus: Packet Context ID: 0
12991000: system.membus: Packet Context ID: 1
13012000: system.membus: Packet Context ID: 0
13022500: system.membus: Packet Context ID: 1
13028500: system.membus: Packet Context ID: 1
13069000: system.membus: Packet Context ID: 1
13125500: system.membus: Packet Context ID: 1
13141000: system.membus: Packet Context ID: 1
13142500: system.membus: Packet Context ID: 1
13146500: system.membus: Packet Context ID: 1
13244000: system.membus: Packet Context ID: 1
13246500: system.membus: Packet Context ID: 0
13317000: system.membus: Packet Context ID: 1
13348000: system.membus: Packet Context ID: 0
13352000: system.membus: Packet Context ID: 0
13402000: system.membus: Packet Context ID: 1
13406000: system.membus: Packet Context ID: 1
13426500: system.membus: Packet Context ID: 0
13429000: system.membus: Packet Context ID: 0
13475000: system.membus: Packet Context ID: 1
13484500: system.membus: Packet Context ID: 1
13501000: system.membus: Packet Context ID: 0
13530000: system.membus: Packet Context ID: 0
13548500: system.membus: Packet Context ID: 1
13551000: system.membus: Packet Context ID: 1
13594500: system.membus: Packet Context ID: 0
13650500: system.membus: Packet Context ID: 1
13675000: system.membus: Packet Context ID: 0
13682500: system.membus: Packet Context ID: 0
13685500: system.membus: Packet Context ID: 0
13694000: system.membus: Packet Context ID: 0
13724000: system.membus: Packet Context ID: 1
13727500: system.membus: Packet Context ID: 1
13800500: system.membus: Packet Context ID: 0
13833000: system.membus: Packet Context ID: 1
13876000: system.membus: Packet Context ID: 0
13881500: system.membus: Packet Context ID: 0
13906000: system.membus: Packet Context ID: 1
13960000: system.membus: Packet Context ID: 0
13991000: system.membus: Packet Context ID: 1
13994000: system.membus: Packet Context ID: 1
14032500: system.membus: Packet Context ID: 0
14069000: system.membus: Packet Context ID: 1
14072500: system.membus: Packet Context ID: 1
14109500: system.membus: Packet Context ID: 0
14173500: system.membus: Packet Context ID: 1
14224000: system.membus: Packet Context ID: 0
14225500: system.membus: Packet Context ID: 0
14276000: system.membus: Packet Context ID: 1
14278500: system.membus: Packet Context ID: 1
14333500: system.membus: Packet Context ID: 0
14339000: system.membus: Packet Context ID: 0
14396000: system.membus: Packet Context ID: 1
14437500: system.membus: Packet Context ID: 0
14440500: system.membus: Packet Context ID: 0
14450000: system.membus: Packet Context ID: 0
14480500: system.membus: Packet Context ID: 1
14488000: system.membus: Packet Context ID: 1
14498500: system.membus: Packet Context ID: 1
14553500: system.membus: Packet Context ID: 0
14569000: system.membus: Packet Context ID: 0
14612000: system.membus: Packet Context ID: 1
14664000: system.membus: Packet Context ID: 0
14681000: system.membus: Packet Context ID: 0
14685000: system.membus: Packet Context ID: 1
14690500: system.membus: Packet Context ID: 0
14692000: system.membus: Packet Context ID: 1
14693000: system.membus: Packet Context ID: 0
14740500: system.membus: Packet Context ID: 0
14754500: system.membus: Packet Context ID: 0
14759000: system.membus: Packet Context ID: 1
14762500: system.membus: Packet Context ID: 1
14866000: system.membus: Packet Context ID: 0
14867000: system.membus: Packet Context ID: 1
14870000: system.membus: Packet Context ID: 0
14944000: system.membus: Packet Context ID: 1
14948500: system.membus: Packet Context ID: 1
14951000: system.membus: Packet Context ID: 0
15022500: system.membus: Packet Context ID: 1
15038500: system.membus: Packet Context ID: 0
15095500: system.membus: Packet Context ID: 1
15152500: system.membus: Packet Context ID: 0
15169000: system.membus: Packet Context ID: 1
15172500: system.membus: Packet Context ID: 1
15226000: system.membus: Packet Context ID: 0
15277500: system.membus: Packet Context ID: 1
15287500: system.membus: Packet Context ID: 1
15303000: system.membus: Packet Context ID: 0
15361500: system.membus: Packet Context ID: 1
15365500: system.membus: Packet Context ID: 1
15376000: system.membus: Packet Context ID: 0
15385500: system.membus: Packet Context ID: 0
15466000: system.membus: Packet Context ID: 1
15472000: system.membus: Packet Context ID: 0
15479000: system.membus: Packet Context ID: 0
15482000: system.membus: Packet Context ID: 0
15541000: system.membus: Packet Context ID: 1
15542000: system.membus: Packet Context ID: 1
15546000: system.membus: Packet Context ID: 0
15549000: system.membus: Packet Context ID: 0
15551000: system.membus: Packet Context ID: 0
15649000: system.membus: Packet Context ID: 1
15651500: system.membus: Packet Context ID: 0
15653000: system.membus: Packet Context ID: 1
15669000: system.membus: Packet Context ID: 0
15952000: system.membus: Packet Context ID: 0
15955500: system.membus: Packet Context ID: 0
15958000: system.membus: Packet Context ID: 0
15969500: system.membus: Packet Context ID: 1
15974500: system.membus: Packet Context ID: 1
16044500: system.membus: Packet Context ID: 0
16046000: system.membus: Packet Context ID: 0
16058500: system.membus: Packet Context ID: 1
16062000: system.membus: Packet Context ID: 1
16064000: system.membus: Packet Context ID: 1
16139500: system.membus: Packet Context ID: 0
16151000: system.membus: Packet Context ID: 1
16216500: system.membus: Packet Context ID: 0
16230500: system.membus: Packet Context ID: 1
16232000: system.membus: Packet Context ID: 1
16317000: system.membus: Packet Context ID: 0
16324000: system.membus: Packet Context ID: 0
16331000: system.membus: Packet Context ID: 0
16337500: system.membus: Packet Context ID: 1
16432500: system.membus: Packet Context ID: 0
16435500: system.membus: Packet Context ID: 0
16440500: system.membus: Packet Context ID: 1
16444500: system.membus: Packet Context ID: 1
16536000: system.membus: Packet Context ID: 0
16542500: system.membus: Packet Context ID: 1
16546000: system.membus: Packet Context ID: 1
16552000: system.membus: Packet Context ID: 1
16613000: system.membus: Packet Context ID: 0
16619000: system.membus: Packet Context ID: 0
16620000: system.membus: Packet Context ID: 1
16622000: system.membus: Packet Context ID: 0
16624000: system.membus: Packet Context ID: 0
16699500: system.membus: Packet Context ID: 1
16704500: system.membus: Packet Context ID: 1
16724000: system.membus: Packet Context ID: 0
16774000: system.membus: Packet Context ID: 1
16824000: system.membus: Packet Context ID: 0
16828500: system.membus: Packet Context ID: 0
16919000: system.membus: Packet Context ID: 1
16922000: system.membus: Packet Context ID: 1
16925500: system.membus: Packet Context ID: 0
16928000: system.membus: Packet Context ID: 0
16998500: system.membus: Packet Context ID: 1
17005000: system.membus: Packet Context ID: 0
17079000: system.membus: Packet Context ID: 0
17148000: system.membus: Packet Context ID: 1
17152000: system.membus: Packet Context ID: 0
17158500: system.membus: Packet Context ID: 0
17261500: system.membus: Packet Context ID: 0
17266500: system.membus: Packet Context ID: 0
17279500: system.membus: Packet Context ID: 1
17335500: system.membus: Packet Context ID: 0
17339500: system.membus: Packet Context ID: 0
17380500: system.membus: Packet Context ID: 1
17428000: system.membus: Packet Context ID: 0
17431000: system.membus: Packet Context ID: 0
17454500: system.membus: Packet Context ID: 1
17460000: system.membus: Packet Context ID: 1
17480500: system.membus: Packet Context ID: 1
17533500: system.membus: Packet Context ID: 0
17585000: system.membus: Packet Context ID: 1
17634500: system.membus: Packet Context ID: 0
17637000: system.membus: Packet Context ID: 0
17659000: system.membus: Packet Context ID: 1
17679500: system.membus: Packet Context ID: 1
17708500: system.membus: Packet Context ID: 0
17710000: system.membus: Packet Context ID: 0
17711000: system.membus: Packet Context ID: 0
17791000: system.membus: Packet Context ID: 1
17800500: system.membus: Packet Context ID: 0
17836000: system.membus: Packet Context ID: 0
17839500: system.membus: Packet Context ID: 0
17892000: system.membus: Packet Context ID: 1
17896000: system.membus: Packet Context ID: 1
17909500: system.membus: Packet Context ID: 0
17912500: system.membus: Packet Context ID: 0
17970000: system.membus: Packet Context ID: 1
17982000: system.membus: Packet Context ID: 1
18013500: system.membus: Packet Context ID: 0
18054000: system.membus: Packet Context ID: 1
18100000: system.membus: Packet Context ID: 0
18127000: system.membus: Packet Context ID: 1
18173500: system.membus: Packet Context ID: 0
18198500: system.membus: Packet Context ID: 0
18200500: system.membus: Packet Context ID: 1
18207000: system.membus: Packet Context ID: 1
18213500: system.membus: Packet Context ID: 1
18299000: system.membus: Packet Context ID: 0
18310500: system.membus: Packet Context ID: 1
18319500: system.membus: Packet Context ID: 1
18322500: system.membus: Packet Context ID: 1
18372500: system.membus: Packet Context ID: 0
18411000: system.membus: Packet Context ID: 1
18417500: system.membus: Packet Context ID: 1
18453500: system.membus: Packet Context ID: 0
18466500: system.membus: Packet Context ID: 0
18491000: system.membus: Packet Context ID: 1
18495500: system.membus: Packet Context ID: 1
18540000: system.membus: Packet Context ID: 0
18547000: system.membus: Packet Context ID: 0
18574000: system.membus: Packet Context ID: 1
18620000: system.membus: Packet Context ID: 0
18624500: system.membus: Packet Context ID: 0
18646000: system.membus: Packet Context ID: 1
18730000: system.membus: Packet Context ID: 0
18734000: system.membus: Packet Context ID: 0
18739000: system.membus: Packet Context ID: 1
18740500: system.membus: Packet Context ID: 1
18808000: system.membus: Packet Context ID: 0
18841000: system.membus: Packet Context ID: 1
18882000: system.membus: Packet Context ID: 0
18926000: system.membus: Packet Context ID: 1
18933500: system.membus: Packet Context ID: 1
18939500: system.membus: Packet Context ID: 1
18990000: system.membus: Packet Context ID: 0
19021500: system.membus: Packet Context ID: 1
19032500: system.membus: Packet Context ID: 1
19047000: system.membus: Packet Context ID: 1
19128500: system.membus: Packet Context ID: 1
19134000: system.membus: Packet Context ID: 1
19168000: system.membus: Packet Context ID: 0
19178500: system.membus: Packet Context ID: 0
19235000: system.membus: Packet Context ID: 1
19238000: system.membus: Packet Context ID: 1
19290000: system.membus: Packet Context ID: 0
19337000: system.membus: Packet Context ID: 1
19342500: system.membus: Packet Context ID: 1
19363500: system.membus: Packet Context ID: 0
19368500: system.membus: Packet Context ID: 0
19411000: system.membus: Packet Context ID: 1
19414000: system.membus: Packet Context ID: 1
19441500: system.membus: Packet Context ID: 0
19455500: system.membus: Packet Context ID: 0
19485500: system.membus: Packet Context ID: 1
19557000: system.membus: Packet Context ID: 0
19567500: system.membus: Packet Context ID: 1
19576000: system.membus: Packet Context ID: 1
19631000: system.membus: Packet Context ID: 0
19634000: system.membus: Packet Context ID: 0
19641500: system.membus: Packet Context ID: 1
19705000: system.membus: Packet Context ID: 1
19734000: system.membus: Packet Context ID: 0
19779000: system.membus: Packet Context ID: 1
19787000: system.membus: Packet Context ID: 1
Hello world!
19852000: system.membus: Packet Context ID: 1
19856000: system.membus: Packet Context ID: 1
19875500: system.membus: Packet Context ID: 0
19884500: system.membus: Packet Context ID: 0
19891500: system.membus: Packet Context ID: 0
19916000: system.membus: Packet Context ID: 0
19930000: system.membus: Packet Context ID: 1
19932500: system.membus: Packet Context ID: 1
19936000: system.membus: Packet Context ID: 1
19975500: system.membus: Packet Context ID: 0
20072000: system.membus: Packet Context ID: 1
20079500: system.membus: Packet Context ID: 0
20137500: system.membus: Packet Context ID: 0
20146500: system.membus: Packet Context ID: 0
20190000: system.membus: Packet Context ID: 1
20247000: system.membus: Packet Context ID: 0
20250000: system.membus: Packet Context ID: 0
20277000: system.membus: Packet Context ID: 1
20322000: system.membus: Packet Context ID: 0
20333500: system.membus: Packet Context ID: 0
20431500: system.membus: Packet Context ID: 0
20441000: system.membus: Packet Context ID: 1
20506000: system.membus: Packet Context ID: 0
20512500: system.membus: Packet Context ID: 0
20514000: system.membus: Packet Context ID: 1
20600500: system.membus: Packet Context ID: 0
20608500: system.membus: Packet Context ID: 0
20612500: system.membus: Packet Context ID: 0
20653000: system.membus: Packet Context ID: 1
20710000: system.membus: Packet Context ID: 0
20754000: system.membus: Packet Context ID: 1
20755000: system.membus: Packet Context ID: 1
20782500: system.membus: Packet Context ID: 0
20787000: system.membus: Packet Context ID: 0
20864000: system.membus: Packet Context ID: 1
20890000: system.membus: Packet Context ID: 0
20965000: system.membus: Packet Context ID: 1
20971000: system.membus: Packet Context ID: 0
20972500: system.membus: Packet Context ID: 0
20977500: system.membus: Packet Context ID: 1
21047000: system.membus: Packet Context ID: 0
21073500: system.membus: Packet Context ID: 0
21087500: system.membus: Packet Context ID: 0
21103500: system.membus: Packet Context ID: 1
21176000: system.membus: Packet Context ID: 0
21181000: system.membus: Packet Context ID: 0
21183000: system.membus: Packet Context ID: 0
21185000: system.membus: Packet Context ID: 1
21211500: system.membus: Packet Context ID: 0
21285000: system.membus: Packet Context ID: 1
21307000: system.membus: Packet Context ID: 0
21308000: system.membus: Packet Context ID: 0
21312000: system.membus: Packet Context ID: 0
21358000: system.membus: Packet Context ID: 1
21455000: system.membus: Packet Context ID: 0
21456000: system.membus: Packet Context ID: 1
21556500: system.membus: Packet Context ID: 0
21562000: system.membus: Packet Context ID: 0
21604000: system.membus: Packet Context ID: 1
21663000: system.membus: Packet Context ID: 0
21666500: system.membus: Packet Context ID: 0
21717500: system.membus: Packet Context ID: 1
21741000: system.membus: Packet Context ID: 0
21819000: system.membus: Packet Context ID: 1
21825000: system.membus: Packet Context ID: 0
21830000: system.membus: Packet Context ID: 0
21930500: system.membus: Packet Context ID: 0
21936500: system.membus: Packet Context ID: 0
21944000: system.membus: Packet Context ID: 1
21975000: system.membus: Packet Context ID: 1
22014500: system.membus: Packet Context ID: 0
22088500: system.membus: Packet Context ID: 0
22091500: system.membus: Packet Context ID: 1
22146000: system.membus: Packet Context ID: 0
22167500: system.membus: Packet Context ID: 1
22253000: system.membus: Packet Context ID: 1
22294500: system.cpu0: suspend contextId 0
22341000: system.membus: Packet Context ID: 1
22415000: system.membus: Packet Context ID: 1
22489500: system.membus: Packet Context ID: 1
22493500: system.membus: Packet Context ID: 1
22568500: system.membus: Packet Context ID: 1
22598000: system.membus: Packet Context ID: 1
22700000: system.membus: Packet Context ID: 1
22787500: system.membus: Packet Context ID: 1
22860500: system.membus: Packet Context ID: 1
22990000: system.membus: Packet Context ID: 1
22992500: system.membus: Packet Context ID: 1
22994000: system.membus: Packet Context ID: 1
23138500: system.membus: Packet Context ID: 1
23212500: system.membus: Packet Context ID: 1
23286500: system.membus: Packet Context ID: 1
23305500: system.membus: Packet Context ID: 1
23361000: system.membus: Packet Context ID: 1
23720500: system.membus: Packet Context ID: 1
23730000: system.membus: Packet Context ID: 1
23795000: system.membus: Packet Context ID: 1
23847000: system.membus: Packet Context ID: 1
23919500: system.membus: Packet Context ID: 1
23993500: system.membus: Packet Context ID: 1
24015000: system.membus: Packet Context ID: 1
24043500: system.membus: Packet Context ID: 1
24045000: system.membus: Packet Context ID: 1
24118000: system.membus: Packet Context ID: 1
24163500: system.membus: Packet Context ID: 1
24219500: system.membus: Packet Context ID: 1
24277500: system.membus: Packet Context ID: 1
24280000: system.membus: Packet Context ID: 1
24282500: system.membus: Packet Context ID: 1
24285000: system.membus: Packet Context ID: 1
24287500: system.membus: Packet Context ID: 1
24290000: system.membus: Packet Context ID: 1
24292500: system.membus: Packet Context ID: 1
24297000: system.membus: Packet Context ID: 1
24407500: system.membus: Packet Context ID: 1
24578500: system.membus: Packet Context ID: 1
24670000: system.membus: Packet Context ID: 1
24743000: system.membus: Packet Context ID: 1
24816500: system.membus: Packet Context ID: 1
24819500: system.membus: Packet Context ID: 1
24921000: system.membus: Packet Context ID: 1
24994000: system.membus: Packet Context ID: 1
25068000: system.membus: Packet Context ID: 1
25071500: system.membus: Packet Context ID: 1
25152500: system.membus: Packet Context ID: 1
25253000: system.membus: Packet Context ID: 1
25326500: system.membus: Packet Context ID: 1
25339000: system.membus: Packet Context ID: 1
25413500: system.membus: Packet Context ID: 1
25444500: system.membus: Packet Context ID: 1
25527000: system.membus: Packet Context ID: 1
25617500: system.membus: Packet Context ID: 1
25632500: system.membus: Packet Context ID: 1
25718000: system.membus: Packet Context ID: 1
25739500: system.membus: Packet Context ID: 1
25793000: system.membus: Packet Context ID: 1
25794000: system.membus: Packet Context ID: 1
25805000: system.membus: Packet Context ID: 1
25942000: system.membus: Packet Context ID: 1
26017000: system.membus: Packet Context ID: 1
26092000: system.membus: Packet Context ID: 1
26182500: system.membus: Packet Context ID: 1
26227500: system.membus: Packet Context ID: 1
26266000: system.membus: Packet Context ID: 1
26329500: system.membus: Packet Context ID: 1
26430500: system.membus: Packet Context ID: 1
26504500: system.membus: Packet Context ID: 1
26578500: system.membus: Packet Context ID: 1
26583500: system.membus: Packet Context ID: 1
26657000: system.membus: Packet Context ID: 1
26730500: system.membus: Packet Context ID: 1
26736500: system.membus: Packet Context ID: 1
26804000: system.membus: Packet Context ID: 1
26838000: system.membus: Packet Context ID: 1
26905500: system.membus: Packet Context ID: 1
26961000: system.membus: Packet Context ID: 1
27007500: system.membus: Packet Context ID: 1
27011000: system.membus: Packet Context ID: 1
27065000: system.membus: Packet Context ID: 1
27116000: system.membus: Packet Context ID: 1
27126500: system.membus: Packet Context ID: 1
27261000: system.membus: Packet Context ID: 1
27334000: system.membus: Packet Context ID: 1
27407000: system.membus: Packet Context ID: 1
27421000: system.membus: Packet Context ID: 1
27527000: system.membus: Packet Context ID: 1
27533000: system.membus: Packet Context ID: 1
27632500: system.membus: Packet Context ID: 1
27706500: system.membus: Packet Context ID: 1
27727000: system.membus: Packet Context ID: 1
27800500: system.membus: Packet Context ID: 1
27810000: system.membus: Packet Context ID: 1
27883500: system.membus: Packet Context ID: 1
27907000: system.membus: Packet Context ID: 1
27979500: system.membus: Packet Context ID: 1
28053000: system.membus: Packet Context ID: 1
28055000: system.membus: Packet Context ID: 1
28056500: system.membus: Packet Context ID: 1
28174000: system.membus: Packet Context ID: 1
28247500: system.membus: Packet Context ID: 1
28251000: system.membus: Packet Context ID: 1
28324500: system.membus: Packet Context ID: 1
28352000: system.membus: Packet Context ID: 1
28446000: system.membus: Packet Context ID: 1
28525000: system.membus: Packet Context ID: 1
28604000: system.membus: Packet Context ID: 1
28683000: system.membus: Packet Context ID: 1
28762000: system.membus: Packet Context ID: 1
28841000: system.membus: Packet Context ID: 1
28920000: system.membus: Packet Context ID: 1
28999000: system.membus: Packet Context ID: 1
29078000: system.membus: Packet Context ID: 1
29157000: system.membus: Packet Context ID: 1
29236000: system.membus: Packet Context ID: 1
29315000: system.membus: Packet Context ID: 1
29394000: system.membus: Packet Context ID: 1
29473000: system.membus: Packet Context ID: 1
29552000: system.membus: Packet Context ID: 1
29645000: system.membus: Packet Context ID: 1
29724000: system.membus: Packet Context ID: 1
29803000: system.membus: Packet Context ID: 1
29882000: system.membus: Packet Context ID: 1
29961000: system.membus: Packet Context ID: 1
30040000: system.membus: Packet Context ID: 1
30119000: system.membus: Packet Context ID: 1
30198000: system.membus: Packet Context ID: 1
30277000: system.membus: Packet Context ID: 1
30356000: system.membus: Packet Context ID: 1
30435000: system.membus: Packet Context ID: 1
30514000: system.membus: Packet Context ID: 1
30593000: system.membus: Packet Context ID: 1
30672000: system.membus: Packet Context ID: 1
30751000: system.membus: Packet Context ID: 1
30830000: system.membus: Packet Context ID: 1
30923000: system.membus: Packet Context ID: 1
30937500: system.membus: Packet Context ID: 1
30939500: system.membus: Packet Context ID: 1
31002000: system.membus: Packet Context ID: 1
31015500: system.membus: Packet Context ID: 1
31081000: system.membus: Packet Context ID: 1
31089500: system.membus: Packet Context ID: 1
31182500: system.membus: Packet Context ID: 1
31195500: system.membus: Packet Context ID: 1
31510000: system.membus: Packet Context ID: 1
31583000: system.membus: Packet Context ID: 1
31587000: system.membus: Packet Context ID: 1
31656000: system.membus: Packet Context ID: 1
31681000: system.membus: Packet Context ID: 1
31688000: system.membus: Packet Context ID: 1
31692000: system.membus: Packet Context ID: 1
31696000: system.membus: Packet Context ID: 1
31781000: system.membus: Packet Context ID: 1
31793500: system.membus: Packet Context ID: 1
31798500: system.membus: Packet Context ID: 1
31816500: system.membus: Packet Context ID: 1
31854000: system.membus: Packet Context ID: 1
31945000: system.membus: Packet Context ID: 1
31960000: system.membus: Packet Context ID: 1
31963000: system.membus: Packet Context ID: 1
31964000: system.membus: Packet Context ID: 1
31967000: system.membus: Packet Context ID: 1
32117500: system.membus: Packet Context ID: 1
32128500: system.membus: Packet Context ID: 1
32190000: system.membus: Packet Context ID: 1
32230500: system.membus: Packet Context ID: 1
32341000: system.membus: Packet Context ID: 1
32353000: system.membus: Packet Context ID: 1
32426500: system.membus: Packet Context ID: 1
32431500: system.membus: Packet Context ID: 1
32443500: system.membus: Packet Context ID: 1
32517000: system.membus: Packet Context ID: 1
32590500: system.membus: Packet Context ID: 1
32665000: system.membus: Packet Context ID: 1
32675000: system.membus: Packet Context ID: 1
32676000: system.membus: Packet Context ID: 1
32679000: system.membus: Packet Context ID: 1
32774000: system.membus: Packet Context ID: 1
32847500: system.membus: Packet Context ID: 1
32928000: system.membus: Packet Context ID: 1
33015500: system.membus: Packet Context ID: 1
33105500: system.membus: Packet Context ID: 1
33179000: system.membus: Packet Context ID: 1
33182500: system.membus: Packet Context ID: 1
33258000: system.membus: Packet Context ID: 1
33276000: system.membus: Packet Context ID: 1
33348000: system.membus: Packet Context ID: 1
33363000: system.membus: Packet Context ID: 1
33460500: system.membus: Packet Context ID: 1
33555000: system.membus: Packet Context ID: 1
33642500: system.membus: Packet Context ID: 1
33644000: system.membus: Packet Context ID: 1
33717000: system.membus: Packet Context ID: 1
33725000: system.membus: Packet Context ID: 1
33817000: system.membus: Packet Context ID: 1
33934500: system.membus: Packet Context ID: 1
33945500: system.membus: Packet Context ID: 1
34055500: system.membus: Packet Context ID: 1
34060000: system.membus: Packet Context ID: 1
34145000: system.membus: Packet Context ID: 1
34219500: system.membus: Packet Context ID: 1
34348000: system.membus: Packet Context ID: 1
34362000: system.membus: Packet Context ID: 1
34407000: system.membus: Packet Context ID: 1
34463500: system.membus: Packet Context ID: 1
34496000: system.membus: Packet Context ID: 1
34651000: system.membus: Packet Context ID: 1
34672000: system.membus: Packet Context ID: 1
34685000: system.membus: Packet Context ID: 1
34700500: system.membus: Packet Context ID: 1
34769500: system.membus: Packet Context ID: 1
34875000: system.membus: Packet Context ID: 1
34947500: system.membus: Packet Context ID: 1
34958000: system.membus: Packet Context ID: 1
35041500: system.membus: Packet Context ID: 1
35051000: system.membus: Packet Context ID: 1
35115500: system.membus: Packet Context ID: 1
35128500: system.membus: Packet Context ID: 1
35202500: system.membus: Packet Context ID: 1
35206000: system.membus: Packet Context ID: 1
35280500: system.membus: Packet Context ID: 1
35293500: system.membus: Packet Context ID: 1
35368000: system.membus: Packet Context ID: 1
35441000: system.membus: Packet Context ID: 1
35452500: system.membus: Packet Context ID: 1
35456500: system.membus: Packet Context ID: 1
35530500: system.membus: Packet Context ID: 1
35605000: system.membus: Packet Context ID: 1
35613000: system.membus: Packet Context ID: 1
35620000: system.membus: Packet Context ID: 1
35693500: system.membus: Packet Context ID: 1
35698000: system.membus: Packet Context ID: 1
35791500: system.membus: Packet Context ID: 1
35894000: system.membus: Packet Context ID: 1
35901000: system.membus: Packet Context ID: 1
35974500: system.membus: Packet Context ID: 1
36048500: system.membus: Packet Context ID: 1
36054000: system.membus: Packet Context ID: 1
36126500: system.membus: Packet Context ID: 1
36132000: system.membus: Packet Context ID: 1
36137000: system.membus: Packet Context ID: 1
36205500: system.membus: Packet Context ID: 1
36208500: system.membus: Packet Context ID: 1
36296000: system.membus: Packet Context ID: 1
36373000: system.membus: Packet Context ID: 1
36464000: system.membus: Packet Context ID: 1
36537500: system.membus: Packet Context ID: 1
36615500: system.membus: Packet Context ID: 1
36688500: system.membus: Packet Context ID: 1
36762000: system.membus: Packet Context ID: 1
36835000: system.membus: Packet Context ID: 1
36839000: system.membus: Packet Context ID: 1
36909000: system.membus: Packet Context ID: 1
36912500: system.membus: Packet Context ID: 1
37007500: system.membus: Packet Context ID: 1
37100000: system.membus: Packet Context ID: 1
37101500: system.membus: Packet Context ID: 1
37186000: system.membus: Packet Context ID: 1
37259000: system.membus: Packet Context ID: 1
37333000: system.membus: Packet Context ID: 1
37334000: system.membus: Packet Context ID: 1
37406000: system.membus: Packet Context ID: 1
37447000: system.membus: Packet Context ID: 1
37448000: system.membus: Packet Context ID: 1
37537000: system.membus: Packet Context ID: 1
37546000: system.membus: Packet Context ID: 1
37628500: system.membus: Packet Context ID: 1
37701500: system.membus: Packet Context ID: 1
37780500: system.membus: Packet Context ID: 1
37854500: system.membus: Packet Context ID: 1
37928500: system.membus: Packet Context ID: 1
37942500: system.membus: Packet Context ID: 1
38003000: system.membus: Packet Context ID: 1
38048000: system.membus: Packet Context ID: 1
38120500: system.membus: Packet Context ID: 1
38159500: system.membus: Packet Context ID: 1
38563500: system.membus: Packet Context ID: 1
38668500: system.membus: Packet Context ID: 1
38798000: system.membus: Packet Context ID: 1
38872500: system.membus: Packet Context ID: 1
38947500: system.membus: Packet Context ID: 1
39294500: system.membus: Packet Context ID: 1
39331000: system.membus: Packet Context ID: 1
39469500: system.membus: Packet Context ID: 1
39486000: system.membus: Packet Context ID: 1
39488500: system.membus: Packet Context ID: 1
39660000: system.membus: Packet Context ID: 1
39758500: system.membus: Packet Context ID: 1
39846500: system.membus: Packet Context ID: 1
39922500: system.membus: Packet Context ID: 1
39999500: system.membus: Packet Context ID: 1
40076500: system.membus: Packet Context ID: 1
40151000: system.membus: Packet Context ID: 1
40226500: system.membus: Packet Context ID: 1
40302500: system.membus: Packet Context ID: 1
40379500: system.membus: Packet Context ID: 1
40456500: system.membus: Packet Context ID: 1
40531000: system.membus: Packet Context ID: 1
40687500: system.membus: Packet Context ID: 1
40711000: system.membus: Packet Context ID: 1
40777000: system.membus: Packet Context ID: 1
40852500: system.membus: Packet Context ID: 1
40929000: system.membus: Packet Context ID: 1
41008000: system.membus: Packet Context ID: 1
41089000: system.membus: Packet Context ID: 1
41168000: system.membus: Packet Context ID: 1
41247000: system.membus: Packet Context ID: 1
41328000: system.membus: Packet Context ID: 1
41408000: system.membus: Packet Context ID: 1
41486500: system.membus: Packet Context ID: 1
41608000: system.membus: Packet Context ID: 1
41645500: system.membus: Packet Context ID: 1
41651500: system.membus: Packet Context ID: 1
41653500: system.membus: Packet Context ID: 1
41685000: system.membus: Packet Context ID: 1
41754000: system.membus: Packet Context ID: 1
41757000: system.membus: Packet Context ID: 1
41802500: system.membus: Packet Context ID: 1
41829500: system.membus: Packet Context ID: 1
41844000: system.membus: Packet Context ID: 1
41920000: system.membus: Packet Context ID: 1
41928500: system.membus: Packet Context ID: 1
41961000: system.membus: Packet Context ID: 1
42034000: system.membus: Packet Context ID: 1
42107500: system.membus: Packet Context ID: 1
42180500: system.membus: Packet Context ID: 1
42254500: system.membus: Packet Context ID: 1
42329000: system.membus: Packet Context ID: 1
42408000: system.membus: Packet Context ID: 1
42481000: system.membus: Packet Context ID: 1
42555000: system.membus: Packet Context ID: 1
42559000: system.membus: Packet Context ID: 1
42645000: system.membus: Packet Context ID: 1
42724000: system.membus: Packet Context ID: 1
42803000: system.membus: Packet Context ID: 1
42882000: system.membus: Packet Context ID: 1
42961000: system.membus: Packet Context ID: 1
43040000: system.membus: Packet Context ID: 1
43119000: system.membus: Packet Context ID: 1
43198000: system.membus: Packet Context ID: 1
43277000: system.membus: Packet Context ID: 1
43356000: system.membus: Packet Context ID: 1
43435000: system.membus: Packet Context ID: 1
43514000: system.membus: Packet Context ID: 1
43593000: system.membus: Packet Context ID: 1
43672000: system.membus: Packet Context ID: 1
43751000: system.membus: Packet Context ID: 1
43830000: system.membus: Packet Context ID: 1
43923000: system.membus: Packet Context ID: 1
44002000: system.membus: Packet Context ID: 1
44081000: system.membus: Packet Context ID: 1
44160000: system.membus: Packet Context ID: 1
44239000: system.membus: Packet Context ID: 1
44318000: system.membus: Packet Context ID: 1
44397000: system.membus: Packet Context ID: 1
44476000: system.membus: Packet Context ID: 1
44555000: system.membus: Packet Context ID: 1
44634000: system.membus: Packet Context ID: 1
44713000: system.membus: Packet Context ID: 1
44792000: system.membus: Packet Context ID: 1
44871000: system.membus: Packet Context ID: 1
44950000: system.membus: Packet Context ID: 1
45029000: system.membus: Packet Context ID: 1
45108000: system.membus: Packet Context ID: 1
45201000: system.membus: Packet Context ID: 1
45210500: system.membus: Packet Context ID: 1
45280000: system.membus: Packet Context ID: 1
45284500: system.membus: Packet Context ID: 1
45359000: system.membus: Packet Context ID: 1
45453000: system.membus: Packet Context ID: 1
45541000: system.membus: Packet Context ID: 1
45542000: system.membus: Packet Context ID: 1
45543500: system.membus: Packet Context ID: 1
45642500: system.membus: Packet Context ID: 1
45646500: system.membus: Packet Context ID: 1
45650000: system.membus: Packet Context ID: 1
45726000: system.membus: Packet Context ID: 1
45729500: system.membus: Packet Context ID: 1
45804500: system.membus: Packet Context ID: 1
45878000: system.membus: Packet Context ID: 1
45881500: system.membus: Packet Context ID: 1
45957500: system.membus: Packet Context ID: 1
45969000: system.membus: Packet Context ID: 1
45972500: system.membus: Packet Context ID: 1
46064000: system.membus: Packet Context ID: 1
46084000: system.membus: Packet Context ID: 1
46111000: system.membus: Packet Context ID: 1
46184500: system.membus: Packet Context ID: 1
46189500: system.membus: Packet Context ID: 1
46262500: system.membus: Packet Context ID: 1
46272000: system.membus: Packet Context ID: 1
46277000: system.membus: Packet Context ID: 1
46345500: system.membus: Packet Context ID: 1
46351000: system.membus: Packet Context ID: 1
46451500: system.membus: Packet Context ID: 1
46458000: system.membus: Packet Context ID: 1
46531500: system.membus: Packet Context ID: 1
46605000: system.membus: Packet Context ID: 1
46678000: system.membus: Packet Context ID: 1
46751000: system.membus: Packet Context ID: 1
46754500: system.membus: Packet Context ID: 1
47083500: system.membus: Packet Context ID: 1
47157500: system.membus: Packet Context ID: 1
47164000: system.membus: Packet Context ID: 1
47168000: system.membus: Packet Context ID: 1
47171000: system.membus: Packet Context ID: 1
47177500: system.membus: Packet Context ID: 1
47266500: system.membus: Packet Context ID: 1
47268500: system.membus: Packet Context ID: 1
47272000: system.membus: Packet Context ID: 1
47278500: system.membus: Packet Context ID: 1
47353000: system.membus: Packet Context ID: 1
47360500: system.membus: Packet Context ID: 1
47363000: system.membus: Packet Context ID: 1
47370000: system.membus: Packet Context ID: 1
47439000: system.membus: Packet Context ID: 1
47446500: system.membus: Packet Context ID: 1
47449000: system.membus: Packet Context ID: 1
47456000: system.membus: Packet Context ID: 1
47525000: system.membus: Packet Context ID: 1
47532500: system.membus: Packet Context ID: 1
47535000: system.membus: Packet Context ID: 1
47542000: system.membus: Packet Context ID: 1
47611000: system.membus: Packet Context ID: 1
47618500: system.membus: Packet Context ID: 1
47621000: system.membus: Packet Context ID: 1
47628000: system.membus: Packet Context ID: 1
47697000: system.membus: Packet Context ID: 1
47721000: system.membus: Packet Context ID: 1
47727000: system.membus: Packet Context ID: 1
47734000: system.membus: Packet Context ID: 1
47782000: system.membus: Packet Context ID: 1
47804000: system.membus: Packet Context ID: 1
47810000: system.membus: Packet Context ID: 1
47816500: system.membus: Packet Context ID: 1
47867000: system.membus: Packet Context ID: 1
47878000: system.membus: Packet Context ID: 1
47893000: system.membus: Packet Context ID: 1
47899500: system.membus: Packet Context ID: 1
47952000: system.membus: Packet Context ID: 1
47955000: system.membus: Packet Context ID: 1
47975000: system.membus: Packet Context ID: 1
47982500: system.membus: Packet Context ID: 1
48038000: system.membus: Packet Context ID: 1
48039000: system.membus: Packet Context ID: 1
48057500: system.membus: Packet Context ID: 1
48065500: system.membus: Packet Context ID: 1
48120000: system.membus: Packet Context ID: 1
48123500: system.membus: Packet Context ID: 1
48167500: system.membus: Packet Context ID: 1
48175000: system.membus: Packet Context ID: 1
48197000: system.membus: Packet Context ID: 1
48213000: system.membus: Packet Context ID: 1
48250000: system.membus: Packet Context ID: 1
48257500: system.membus: Packet Context ID: 1
48276000: system.membus: Packet Context ID: 1
48298000: system.membus: Packet Context ID: 1
48333000: system.membus: Packet Context ID: 1
48340500: system.membus: Packet Context ID: 1
48352000: system.membus: Packet Context ID: 1
48383000: system.membus: Packet Context ID: 1
48416000: system.membus: Packet Context ID: 1
48423500: system.membus: Packet Context ID: 1
48429000: system.membus: Packet Context ID: 1
48468000: system.membus: Packet Context ID: 1
48499000: system.membus: Packet Context ID: 1
48506500: system.membus: Packet Context ID: 1
48510000: system.membus: Packet Context ID: 1
48553000: system.membus: Packet Context ID: 1
48582000: system.membus: Packet Context ID: 1
48589500: system.membus: Packet Context ID: 1
48600000: system.membus: Packet Context ID: 1
48652000: system.membus: Packet Context ID: 1
48665000: system.membus: Packet Context ID: 1
48672500: system.membus: Packet Context ID: 1
48677000: system.membus: Packet Context ID: 1
48737000: system.membus: Packet Context ID: 1
48748000: system.membus: Packet Context ID: 1
48758500: system.membus: Packet Context ID: 1
48760000: system.membus: Packet Context ID: 1
48822000: system.membus: Packet Context ID: 1
48833000: system.membus: Packet Context ID: 1
48842000: system.membus: Packet Context ID: 1
48844500: system.membus: Packet Context ID: 1
48906500: system.membus: Packet Context ID: 1
48919000: system.membus: Packet Context ID: 1
48924000: system.membus: Packet Context ID: 1
48932500: system.membus: Packet Context ID: 1
48998000: system.membus: Packet Context ID: 1
49000000: system.membus: Packet Context ID: 1
49008500: system.membus: Packet Context ID: 1
49015500: system.membus: Packet Context ID: 1
49074000: system.membus: Packet Context ID: 1
49091000: system.membus: Packet Context ID: 1
49122500: system.membus: Packet Context ID: 1
49151000: system.membus: Packet Context ID: 1
49152500: system.membus: Packet Context ID: 1
49175500: system.membus: Packet Context ID: 1
49230000: system.membus: Packet Context ID: 1
49233500: system.membus: Packet Context ID: 1
49241000: system.membus: Packet Context ID: 1
49261000: system.membus: Packet Context ID: 1
49306000: system.membus: Packet Context ID: 1
49319000: system.membus: Packet Context ID: 1
49325500: system.membus: Packet Context ID: 1
49383000: system.membus: Packet Context ID: 1
49387000: system.membus: Packet Context ID: 1
49401000: system.membus: Packet Context ID: 1
49457000: system.membus: Packet Context ID: 1
49462000: system.membus: Packet Context ID: 1
49475000: system.membus: Packet Context ID: 1
49531500: system.membus: Packet Context ID: 1
49539500: system.membus: Packet Context ID: 1
49541000: system.membus: Packet Context ID: 1
49560000: system.membus: Packet Context ID: 1
49622500: system.membus: Packet Context ID: 1
49624000: system.membus: Packet Context ID: 1
49629500: system.membus: Packet Context ID: 1
49705000: system.membus: Packet Context ID: 1
49709000: system.membus: Packet Context ID: 1
49712500: system.membus: Packet Context ID: 1
49720500: system.membus: Packet Context ID: 1
49789000: system.membus: Packet Context ID: 1
49790500: system.membus: Packet Context ID: 1
49802000: system.membus: Packet Context ID: 1
49877000: system.membus: Packet Context ID: 1
49880000: system.membus: Packet Context ID: 1
49893000: system.membus: Packet Context ID: 1
49951500: system.membus: Packet Context ID: 1
49964000: system.membus: Packet Context ID: 1
49966000: system.membus: Packet Context ID: 1
49978000: system.membus: Packet Context ID: 1
50040000: system.membus: Packet Context ID: 1
50046500: system.membus: Packet Context ID: 1
50054000: system.membus: Packet Context ID: 1
50115500: system.membus: Packet Context ID: 1
50117000: system.membus: Packet Context ID: 1
50129500: system.membus: Packet Context ID: 1
50137000: system.membus: Packet Context ID: 1
50202000: system.membus: Packet Context ID: 1
50206500: system.membus: Packet Context ID: 1
50232000: system.membus: Packet Context ID: 1
50239000: system.membus: Packet Context ID: 1
50278000: system.membus: Packet Context ID: 1
50295000: system.membus: Packet Context ID: 1
50314000: system.membus: Packet Context ID: 1
50355000: system.membus: Packet Context ID: 1
50359000: system.membus: Packet Context ID: 1
50379500: system.membus: Packet Context ID: 1
50434000: system.membus: Packet Context ID: 1
50437000: system.membus: Packet Context ID: 1
50445500: system.membus: Packet Context ID: 1
50464500: system.membus: Packet Context ID: 1
50510000: system.membus: Packet Context ID: 1
50523000: system.membus: Packet Context ID: 1
50529500: system.membus: Packet Context ID: 1
50583000: system.membus: Packet Context ID: 1
50658000: system.membus: Packet Context ID: 1
50660000: system.membus: Packet Context ID: 1
50662000: system.membus: Packet Context ID: 1
50668500: system.membus: Packet Context ID: 1
50745500: system.membus: Packet Context ID: 1
50748000: system.membus: Packet Context ID: 1
50783500: system.membus: Packet Context ID: 1
50791500: system.membus: Packet Context ID: 1
50822000: system.membus: Packet Context ID: 1
50837500: system.membus: Packet Context ID: 1
50867000: system.membus: Packet Context ID: 1
50899000: system.membus: Packet Context ID: 1
50903000: system.membus: Packet Context ID: 1
50922500: system.membus: Packet Context ID: 1
50978000: system.membus: Packet Context ID: 1
50981000: system.membus: Packet Context ID: 1
50989500: system.membus: Packet Context ID: 1
51007500: system.membus: Packet Context ID: 1
51054000: system.membus: Packet Context ID: 1
51067000: system.membus: Packet Context ID: 1
51073500: system.membus: Packet Context ID: 1
51145000: system.membus: Packet Context ID: 1
51150000: system.membus: Packet Context ID: 1
51156500: system.membus: Packet Context ID: 1
51223500: system.membus: Packet Context ID: 1
51225000: system.membus: Packet Context ID: 1
51235000: system.membus: Packet Context ID: 1
51298500: system.membus: Packet Context ID: 1
51307000: system.membus: Packet Context ID: 1
51309500: system.membus: Packet Context ID: 1
51343500: system.membus: Packet Context ID: 1
51384000: system.membus: Packet Context ID: 1
51389000: system.membus: Packet Context ID: 1
51397500: system.membus: Packet Context ID: 1
51463000: system.membus: Packet Context ID: 1
51465000: system.membus: Packet Context ID: 1
51473500: system.membus: Packet Context ID: 1
51480500: system.membus: Packet Context ID: 1
51539000: system.membus: Packet Context ID: 1
51552500: system.membus: Packet Context ID: 1
51557000: system.membus: Packet Context ID: 1
51616000: system.membus: Packet Context ID: 1
51617500: system.membus: Packet Context ID: 1
51635000: system.membus: Packet Context ID: 1
51695000: system.membus: Packet Context ID: 1
51698500: system.membus: Packet Context ID: 1
51706000: system.membus: Packet Context ID: 1
51720000: system.membus: Packet Context ID: 1
51771000: system.membus: Packet Context ID: 1
51784000: system.membus: Packet Context ID: 1
51790500: system.membus: Packet Context ID: 1
51847000: system.membus: Packet Context ID: 1
51852000: system.membus: Packet Context ID: 1
51879000: system.membus: Packet Context ID: 1
51925000: system.membus: Packet Context ID: 1
51926000: system.membus: Packet Context ID: 1
51940000: system.membus: Packet Context ID: 1
51998000: system.membus: Packet Context ID: 1
52007500: system.membus: Packet Context ID: 1
52072000: system.membus: Packet Context ID: 1
52073000: system.membus: Packet Context ID: 1
52154000: system.membus: Packet Context ID: 1
52155000: system.membus: Packet Context ID: 1
52159000: system.membus: Packet Context ID: 1
52237000: system.membus: Packet Context ID: 1
52241000: system.membus: Packet Context ID: 1
52314000: system.membus: Packet Context ID: 1
52316000: system.membus: Packet Context ID: 1
52320000: system.membus: Packet Context ID: 1
52327500: system.membus: Packet Context ID: 1
52408000: system.membus: Packet Context ID: 1
52411000: system.membus: Packet Context ID: 1
52418500: system.membus: Packet Context ID: 1
52425500: system.membus: Packet Context ID: 1
52487000: system.membus: Packet Context ID: 1
52497500: system.membus: Packet Context ID: 1
52530500: system.membus: Packet Context ID: 1
52538000: system.membus: Packet Context ID: 1
52565000: system.membus: Packet Context ID: 1
52583000: system.membus: Packet Context ID: 1
52613000: system.membus: Packet Context ID: 1
52639000: system.membus: Packet Context ID: 1
52641000: system.membus: Packet Context ID: 1
52667500: system.membus: Packet Context ID: 1
52722000: system.membus: Packet Context ID: 1
52723000: system.membus: Packet Context ID: 1
52729500: system.membus: Packet Context ID: 1
52801000: system.membus: Packet Context ID: 1
52805000: system.membus: Packet Context ID: 1
52811000: system.membus: Packet Context ID: 1
52817500: system.membus: Packet Context ID: 1
52875000: system.membus: Packet Context ID: 1
52890500: system.membus: Packet Context ID: 1
52950000: system.membus: Packet Context ID: 1
52952500: system.membus: Packet Context ID: 1
53023000: system.membus: Packet Context ID: 1
53024000: system.membus: Packet Context ID: 1
53098000: system.membus: Packet Context ID: 1
53100000: system.membus: Packet Context ID: 1
53106000: system.membus: Packet Context ID: 1
53177000: system.membus: Packet Context ID: 1
53179000: system.membus: Packet Context ID: 1
53196000: system.membus: Packet Context ID: 1
53256000: system.membus: Packet Context ID: 1
53259500: system.membus: Packet Context ID: 1
53267000: system.membus: Packet Context ID: 1
53281000: system.membus: Packet Context ID: 1
53335000: system.membus: Packet Context ID: 1
53345000: system.membus: Packet Context ID: 1
53351500: system.membus: Packet Context ID: 1
53366000: system.membus: Packet Context ID: 1
53414000: system.membus: Packet Context ID: 1
53427000: system.membus: Packet Context ID: 1
53434500: system.membus: Packet Context ID: 1
53451000: system.membus: Packet Context ID: 1
53488000: system.membus: Packet Context ID: 1
53510000: system.membus: Packet Context ID: 1
53517500: system.membus: Packet Context ID: 1
53561000: system.membus: Packet Context ID: 1
53649000: system.membus: Packet Context ID: 1
53650000: system.membus: Packet Context ID: 1
53654000: system.membus: Packet Context ID: 1
53722000: system.membus: Packet Context ID: 1
53797000: system.membus: Packet Context ID: 1
53798000: system.membus: Packet Context ID: 1
53802500: system.membus: Packet Context ID: 1
53882500: system.membus: Packet Context ID: 1
53884000: system.membus: Packet Context ID: 1
53889000: system.membus: Packet Context ID: 1
53898500: system.membus: Packet Context ID: 1
53969000: system.membus: Packet Context ID: 1
53972000: system.membus: Packet Context ID: 1
53979500: system.membus: Packet Context ID: 1
53989000: system.membus: Packet Context ID: 1
54048000: system.membus: Packet Context ID: 1
54058000: system.membus: Packet Context ID: 1
54065000: system.membus: Packet Context ID: 1
54074500: system.membus: Packet Context ID: 1
54127000: system.membus: Packet Context ID: 1
54140000: system.membus: Packet Context ID: 1
54147500: system.membus: Packet Context ID: 1
54160000: system.membus: Packet Context ID: 1
54206000: system.membus: Packet Context ID: 1
54223000: system.membus: Packet Context ID: 1
54230500: system.membus: Packet Context ID: 1
54245000: system.membus: Packet Context ID: 1
54284000: system.membus: Packet Context ID: 1
54333500: system.membus: Packet Context ID: 1
54340500: system.membus: Packet Context ID: 1
54360500: system.membus: Packet Context ID: 1
54363000: system.membus: Packet Context ID: 1
54416000: system.membus: Packet Context ID: 1
54423000: system.membus: Packet Context ID: 1
54447000: system.membus: Packet Context ID: 1
54448000: system.membus: Packet Context ID: 1
54498000: system.membus: Packet Context ID: 1
54505000: system.membus: Packet Context ID: 1
54533000: system.membus: Packet Context ID: 1
54534000: system.membus: Packet Context ID: 1
54870000: system.membus: Packet Context ID: 1
54873500: system.membus: Packet Context ID: 1
54880500: system.membus: Packet Context ID: 1
54890000: system.membus: Packet Context ID: 1
54949000: system.membus: Packet Context ID: 1
54959000: system.membus: Packet Context ID: 1
54966000: system.membus: Packet Context ID: 1
54975500: system.membus: Packet Context ID: 1
55042500: system.membus: Packet Context ID: 1
55051000: system.membus: Packet Context ID: 1
55057000: system.membus: Packet Context ID: 1
55066500: system.membus: Packet Context ID: 1
55121000: system.membus: Packet Context ID: 1
55132500: system.membus: Packet Context ID: 1
55140000: system.membus: Packet Context ID: 1
55152000: system.membus: Packet Context ID: 1
55196000: system.membus: Packet Context ID: 1
55215000: system.membus: Packet Context ID: 1
55222500: system.membus: Packet Context ID: 1
55237000: system.membus: Packet Context ID: 1
55268000: system.membus: Packet Context ID: 1
55298000: system.membus: Packet Context ID: 1
55340000: system.membus: Packet Context ID: 1
55415000: system.membus: Packet Context ID: 1
55418500: system.membus: Packet Context ID: 1
55420500: system.membus: Packet Context ID: 1
55489500: system.membus: Packet Context ID: 1
55495000: system.membus: Packet Context ID: 1
55572000: system.membus: Packet Context ID: 1
55575500: system.membus: Packet Context ID: 1
55577500: system.membus: Packet Context ID: 1
55646500: system.membus: Packet Context ID: 1
55656000: system.membus: Packet Context ID: 1
55658500: system.membus: Packet Context ID: 1
55672500: system.membus: Packet Context ID: 1
55728000: system.membus: Packet Context ID: 1
55803500: system.membus: Packet Context ID: 1
55805000: system.membus: Packet Context ID: 1
55808500: system.membus: Packet Context ID: 1
55883000: system.membus: Packet Context ID: 1
55957000: system.membus: Packet Context ID: 1
55958000: system.membus: Packet Context ID: 1
55962000: system.membus: Packet Context ID: 1
56032000: system.membus: Packet Context ID: 1
56038000: system.membus: Packet Context ID: 1
56109000: system.membus: Packet Context ID: 1
56111000: system.membus: Packet Context ID: 1
56115000: system.membus: Packet Context ID: 1
56122500: system.membus: Packet Context ID: 1
56193000: system.membus: Packet Context ID: 1
56198000: system.membus: Packet Context ID: 1
56225500: system.membus: Packet Context ID: 1
56281000: system.membus: Packet Context ID: 1
56285000: system.membus: Packet Context ID: 1
56356000: system.membus: Packet Context ID: 1
56358000: system.membus: Packet Context ID: 1
56364000: system.membus: Packet Context ID: 1
56431000: system.membus: Packet Context ID: 1
56437000: system.membus: Packet Context ID: 1
56505000: system.membus: Packet Context ID: 1
56508000: system.membus: Packet Context ID: 1
56580500: system.membus: Packet Context ID: 1
56584000: system.membus: Packet Context ID: 1
56587000: system.membus: Packet Context ID: 1
56598000: system.membus: Packet Context ID: 1
56667000: system.membus: Packet Context ID: 1
56670500: system.membus: Packet Context ID: 1
56677500: system.membus: Packet Context ID: 1
56686500: system.membus: Packet Context ID: 1
56746000: system.membus: Packet Context ID: 1
56756000: system.membus: Packet Context ID: 1
56763000: system.membus: Packet Context ID: 1
56772500: system.membus: Packet Context ID: 1
56825000: system.membus: Packet Context ID: 1
56865500: system.membus: Packet Context ID: 1
56873000: system.membus: Packet Context ID: 1
56882500: system.membus: Packet Context ID: 1
56904000: system.membus: Packet Context ID: 1
56948000: system.membus: Packet Context ID: 1
56955500: system.membus: Packet Context ID: 1
56968000: system.membus: Packet Context ID: 1
56982000: system.membus: Packet Context ID: 1
57031000: system.membus: Packet Context ID: 1
57038500: system.membus: Packet Context ID: 1
57053000: system.membus: Packet Context ID: 1
57061000: system.membus: Packet Context ID: 1
57114000: system.membus: Packet Context ID: 1
57121500: system.membus: Packet Context ID: 1
57139000: system.membus: Packet Context ID: 1
57140000: system.membus: Packet Context ID: 1
57196500: system.membus: Packet Context ID: 1
57204500: system.membus: Packet Context ID: 1
57224500: system.membus: Packet Context ID: 1
57226000: system.membus: Packet Context ID: 1
57280000: system.membus: Packet Context ID: 1
57287500: system.membus: Packet Context ID: 1
57326000: system.membus: Packet Context ID: 1
57327000: system.membus: Packet Context ID: 1
57362500: system.membus: Packet Context ID: 1
57370500: system.membus: Packet Context ID: 1
57411500: system.membus: Packet Context ID: 1
57413000: system.membus: Packet Context ID: 1
57446000: system.membus: Packet Context ID: 1
57453500: system.membus: Packet Context ID: 1
57498000: system.membus: Packet Context ID: 1
57499000: system.membus: Packet Context ID: 1
57528500: system.membus: Packet Context ID: 1
57536500: system.membus: Packet Context ID: 1
57588500: system.membus: Packet Context ID: 1
57592000: system.membus: Packet Context ID: 1
57612000: system.membus: Packet Context ID: 1
57619500: system.membus: Packet Context ID: 1
57675000: system.membus: Packet Context ID: 1
57676000: system.membus: Packet Context ID: 1
[...]
86629000: system.membus: Packet Context ID: 1
86645500: system.membus: Packet Context ID: 1
86812500: system.membus: Packet Context ID: 1
86832000: system.membus: Packet Context ID: 1
86841500: system.membus: Packet Context ID: 1
86978000: system.membus: Packet Context ID: 1
87089000: system.membus: Packet Context ID: 1
87105500: system.membus: Packet Context ID: 1
87216500: system.membus: Packet Context ID: 1
87345500: system.membus: Packet Context ID: 1
87463000: system.membus: Packet Context ID: 1
87464500: system.membus: Packet Context ID: 1
87582500: system.membus: Packet Context ID: 1
87593500: system.membus: Packet Context ID: 1
87735500: system.membus: Packet Context ID: 1
87829500: system.membus: Packet Context ID: 1
87836500: system.membus: Packet Context ID: 1
87910500: system.membus: Packet Context ID: 1
88048000: system.membus: Packet Context ID: 1
88049000: system.membus: Packet Context ID: 1
88064500: system.membus: Packet Context ID: 1
88149500: system.membus: Packet Context ID: 1
88302500: system.membus: Packet Context ID: 1
88376500: system.membus: Packet Context ID: 1
88515000: system.membus: Packet Context ID: 1
88612000: system.membus: Packet Context ID: 1
88707000: system.membus: Packet Context ID: 1
88782500: system.membus: Packet Context ID: 1
88934000: system.membus: Packet Context ID: 1
88935000: system.membus: Packet Context ID: 1
88952000: system.membus: Packet Context ID: 1
89115500: system.membus: Packet Context ID: 1
89253500: system.membus: Packet Context ID: 1
89329500: system.membus: Packet Context ID: 1
89492000: system.membus: Packet Context ID: 1
89628500: system.membus: Packet Context ID: 1
89630000: system.membus: Packet Context ID: 1
89710500: system.membus: Packet Context ID: 1
89789500: system.membus: Packet Context ID: 1
89869500: system.membus: Packet Context ID: 1
89943500: system.membus: Packet Context ID: 1
90060000: system.membus: Packet Context ID: 1
90148500: system.membus: Packet Context ID: 1
90151500: system.membus: Packet Context ID: 1
90323500: system.membus: Packet Context ID: 1
90440000: system.membus: Packet Context ID: 1
90514500: system.membus: Packet Context ID: 1
90768500: system.membus: Packet Context ID: 1
90843000: system.membus: Packet Context ID: 1
90844000: system.membus: Packet Context ID: 1
90925500: system.membus: Packet Context ID: 1
91111000: system.membus: Packet Context ID: 1
91246000: system.membus: Packet Context ID: 1
91247000: system.membus: Packet Context ID: 1
91325500: system.membus: Packet Context ID: 1
91525500: system.membus: Packet Context ID: 1
91599500: system.membus: Packet Context ID: 1
91737000: system.membus: Packet Context ID: 1
91738000: system.membus: Packet Context ID: 1
91826500: system.membus: Packet Context ID: 1
91918500: system.membus: Packet Context ID: 1
91999500: system.membus: Packet Context ID: 1
92157500: system.membus: Packet Context ID: 1
92233000: system.membus: Packet Context ID: 1
92234000: system.membus: Packet Context ID: 1
92315500: system.membus: Packet Context ID: 1
92511000: system.membus: Packet Context ID: 1
92665000: system.membus: Packet Context ID: 1
92739500: system.membus: Packet Context ID: 1
92863500: system.membus: Packet Context ID: 1
93045500: system.membus: Packet Context ID: 1
93048500: system.membus: Packet Context ID: 1
93149000: system.membus: Packet Context ID: 1
93223500: system.membus: Packet Context ID: 1
93225000: system.membus: Packet Context ID: 1
93507000: system.membus: Packet Context ID: 1
93516000: system.membus: Packet Context ID: 1
93800500: system.membus: Packet Context ID: 1
93838000: system.membus: Packet Context ID: 1
93926500: system.membus: Packet Context ID: 1
94187000: system.membus: Packet Context ID: 1
94300500: system.membus: Packet Context ID: 1
94519500: system.membus: Packet Context ID: 1
94521000: system.membus: Packet Context ID: 1
94764500: system.membus: Packet Context ID: 1
94771500: system.membus: Packet Context ID: 1
94845500: system.membus: Packet Context ID: 1
95046000: system.membus: Packet Context ID: 1
95148000: system.membus: Packet Context ID: 1
95149000: system.membus: Packet Context ID: 1
95243500: system.membus: Packet Context ID: 1
95453500: system.membus: Packet Context ID: 1
95455000: system.membus: Packet Context ID: 1
95613000: system.membus: Packet Context ID: 1
95614000: system.membus: Packet Context ID: 1
95702500: system.membus: Packet Context ID: 1
95837500: system.membus: Packet Context ID: 1
95966500: system.membus: Packet Context ID: 1
96083000: system.membus: Packet Context ID: 1
96084000: system.membus: Packet Context ID: 1
96172500: system.membus: Packet Context ID: 1
96325000: system.membus: Packet Context ID: 1
96398500: system.membus: Packet Context ID: 1
96530500: system.membus: Packet Context ID: 1
96635000: system.membus: Packet Context ID: 1
96723500: system.membus: Packet Context ID: 1
96803000: system.membus: Packet Context ID: 1
96945500: system.membus: Packet Context ID: 1
97038000: system.membus: Packet Context ID: 1
97135500: system.membus: Packet Context ID: 1
97210500: system.membus: Packet Context ID: 1
97354500: system.membus: Packet Context ID: 1
97466500: system.membus: Packet Context ID: 1
97473000: system.membus: Packet Context ID: 1
97542000: system.membus: Packet Context ID: 1
97616500: system.membus: Packet Context ID: 1
97710000: system.membus: Packet Context ID: 1
97879500: system.membus: Packet Context ID: 1
97974500: system.membus: Packet Context ID: 1
98172500: system.membus: Packet Context ID: 1
98247500: system.membus: Packet Context ID: 1
98346500: system.membus: Packet Context ID: 1
98487500: system.membus: Packet Context ID: 1
98649000: system.membus: Packet Context ID: 1
98751000: system.membus: Packet Context ID: 1
98752000: system.membus: Packet Context ID: 1
98833500: system.membus: Packet Context ID: 1
98924500: system.membus: Packet Context ID: 1
99046500: system.membus: Packet Context ID: 1
99173000: system.membus: Packet Context ID: 1
99174000: system.membus: Packet Context ID: 1
99326000: system.membus: Packet Context ID: 1
99400500: system.membus: Packet Context ID: 1
99402000: system.membus: Packet Context ID: 1
99633500: system.membus: Packet Context ID: 1
99708500: system.membus: Packet Context ID: 1
99710500: system.membus: Packet Context ID: 1
99953000: system.membus: Packet Context ID: 1
100057000: system.membus: Packet Context ID: 1
100131500: system.membus: Packet Context ID: 1
100320500: system.membus: Packet Context ID: 1
100456000: system.membus: Packet Context ID: 1
100457000: system.membus: Packet Context ID: 1
100538500: system.membus: Packet Context ID: 1
100684000: system.membus: Packet Context ID: 1
100785500: system.membus: Packet Context ID: 1
100935500: system.membus: Packet Context ID: 1
101038000: system.membus: Packet Context ID: 1
101039000: system.membus: Packet Context ID: 1
101120500: system.membus: Packet Context ID: 1
101313000: system.membus: Packet Context ID: 1
101613500: system.membus: Packet Context ID: 1
101785500: system.membus: Packet Context ID: 1
101874500: system.membus: Packet Context ID: 1
101968000: system.membus: Packet Context ID: 1
102012000: system.membus: Packet Context ID: 1
102123500: system.membus: Packet Context ID: 1
102303000: system.membus: Packet Context ID: 1
102377500: system.membus: Packet Context ID: 1
102552500: system.membus: Packet Context ID: 1
102706500: system.membus: Packet Context ID: 1
102810000: system.membus: Packet Context ID: 1
102884500: system.membus: Packet Context ID: 1
103049500: system.membus: Packet Context ID: 1
103224000: system.membus: Packet Context ID: 1
103401500: system.membus: Packet Context ID: 1
103621500: system.membus: Packet Context ID: 1
103854000: system.membus: Packet Context ID: 1
103928500: system.membus: Packet Context ID: 1
104028000: system.membus: Packet Context ID: 1
104140500: system.membus: Packet Context ID: 1
104244000: system.membus: Packet Context ID: 1
104245000: system.membus: Packet Context ID: 1
104353500: system.membus: Packet Context ID: 1
104542000: system.membus: Packet Context ID: 1
104711500: system.membus: Packet Context ID: 1
104717000: system.membus: Packet Context ID: 1
104863500: system.membus: Packet Context ID: 1
104867000: system.membus: Packet Context ID: 1
104942000: system.membus: Packet Context ID: 1
104951500: system.membus: Packet Context ID: 1
104953500: system.membus: Packet Context ID: 1
105030500: system.membus: Packet Context ID: 1
105059000: system.membus: Packet Context ID: 1
105134000: system.membus: Packet Context ID: 1
105232500: system.membus: Packet Context ID: 1
105419500: system.membus: Packet Context ID: 1
105547000: system.membus: Packet Context ID: 1
105565500: system.membus: Packet Context ID: 1
105579000: system.membus: Packet Context ID: 1
105580000: system.membus: Packet Context ID: 1
105668500: system.membus: Packet Context ID: 1
105819000: system.membus: Packet Context ID: 1
105920500: system.membus: Packet Context ID: 1
106033000: system.membus: Packet Context ID: 1
106039000: system.membus: Packet Context ID: 1
106157000: system.membus: Packet Context ID: 1
106187000: system.membus: Packet Context ID: 1
106262500: system.membus: Packet Context ID: 1
106275500: system.membus: Packet Context ID: 1
106357500: system.membus: Packet Context ID: 1
106384500: system.membus: Packet Context ID: 1
106391500: system.membus: Packet Context ID: 1
106459000: system.membus: Packet Context ID: 1
106461500: system.membus: Packet Context ID: 1
106603000: system.membus: Packet Context ID: 1
106607500: system.membus: Packet Context ID: 1
106693000: system.membus: Packet Context ID: 1
106699500: system.membus: Packet Context ID: 1
106801000: system.membus: Packet Context ID: 1
106888000: system.membus: Packet Context ID: 1
106960500: system.membus: Packet Context ID: 1
107034000: system.membus: Packet Context ID: 1
107037000: system.membus: Packet Context ID: 1
107111500: system.membus: Packet Context ID: 1
107213500: system.membus: Packet Context ID: 1
107288000: system.membus: Packet Context ID: 1
107290500: system.membus: Packet Context ID: 1
107309500: system.membus: Packet Context ID: 1
107518000: system.membus: Packet Context ID: 1
107529000: system.membus: Packet Context ID: 1
107561500: system.membus: Packet Context ID: 1
107662500: system.membus: Packet Context ID: 1
107757000: system.membus: Packet Context ID: 1
107858500: system.membus: Packet Context ID: 1
107945500: system.membus: Packet Context ID: 1
108046500: system.membus: Packet Context ID: 1
108133500: system.membus: Packet Context ID: 1
108206000: system.membus: Packet Context ID: 1
108301500: system.membus: Packet Context ID: 1
108375500: system.membus: Packet Context ID: 1
108595000: system.membus: Packet Context ID: 1
108668500: system.membus: Packet Context ID: 1
108742000: system.membus: Packet Context ID: 1
108821500: system.membus: Packet Context ID: 1
108921500: system.membus: Packet Context ID: 1
109023000: system.membus: Packet Context ID: 1
109419000: system.membus: Packet Context ID: 1
109506500: system.membus: Packet Context ID: 1
109584500: system.membus: Packet Context ID: 1
109618000: system.membus: Packet Context ID: 1
109719000: system.membus: Packet Context ID: 1
109729500: system.membus: Packet Context ID: 1
110054000: system.membus: Packet Context ID: 1
110065500: system.membus: Packet Context ID: 1
110088500: system.membus: Packet Context ID: 1
110095500: system.membus: Packet Context ID: 1
110405500: system.membus: Packet Context ID: 1
110510500: system.membus: Packet Context ID: 1
110512000: system.membus: Packet Context ID: 1
110684000: system.membus: Packet Context ID: 1
111070000: system.membus: Packet Context ID: 1
111488000: system.membus: Packet Context ID: 1
111634000: system.membus: Packet Context ID: 1
111744000: system.membus: Packet Context ID: 1
111753500: system.membus: Packet Context ID: 1
111827500: system.membus: Packet Context ID: 1
111901000: system.membus: Packet Context ID: 1
111974500: system.membus: Packet Context ID: 1
112048500: system.membus: Packet Context ID: 1
112122000: system.membus: Packet Context ID: 1
112196000: system.membus: Packet Context ID: 1
112233000: system.membus: Packet Context ID: 1
112269500: system.membus: Packet Context ID: 1
112325000: system.membus: Packet Context ID: 1
112353500: system.membus: Packet Context ID: 1
112427500: system.membus: Packet Context ID: 1
112501500: system.membus: Packet Context ID: 1
112595500: system.membus: Packet Context ID: 1
112628500: system.membus: Packet Context ID: 1
112995500: system.membus: Packet Context ID: 1
113479000: system.membus: Packet Context ID: 1
113506000: system.membus: Packet Context ID: 1
114005000: system.membus: Packet Context ID: 1
114106500: system.membus: Packet Context ID: 1
114201000: system.membus: Packet Context ID: 1
114290000: system.membus: Packet Context ID: 1
114333000: system.membus: Packet Context ID: 1
114429500: system.membus: Packet Context ID: 1
114703500: system.membus: Packet Context ID: 1
114741000: system.membus: Packet Context ID: 1
114854000: system.membus: Packet Context ID: 1
114860000: system.membus: Packet Context ID: 1
114865500: system.membus: Packet Context ID: 1
115169000: system.membus: Packet Context ID: 1
115331000: system.membus: Packet Context ID: 1
115432000: system.membus: Packet Context ID: 1
115505500: system.membus: Packet Context ID: 1
115584000: system.membus: Packet Context ID: 1
115657500: system.membus: Packet Context ID: 1
115665000: system.membus: Packet Context ID: 1
115737500: system.membus: Packet Context ID: 1
115786000: system.membus: Packet Context ID: 1
115887500: system.membus: Packet Context ID: 1
115893000: system.membus: Packet Context ID: 1
115965000: system.membus: Packet Context ID: 1
116038500: system.membus: Packet Context ID: 1
116040000: system.membus: Packet Context ID: 1
116042000: system.membus: Packet Context ID: 1
116145500: system.membus: Packet Context ID: 1
116151000: system.membus: Packet Context ID: 1
116219500: system.membus: Packet Context ID: 1
116251000: system.membus: Packet Context ID: 1
116325000: system.membus: Packet Context ID: 1
116442500: system.membus: Packet Context ID: 1
116530000: system.membus: Packet Context ID: 1
116544500: system.membus: Packet Context ID: 1
116605000: system.membus: Packet Context ID: 1
116775000: system.membus: Packet Context ID: 1
116876000: system.membus: Packet Context ID: 1
117187500: system.membus: Packet Context ID: 1
117274500: system.membus: Packet Context ID: 1
117349000: system.membus: Packet Context ID: 1
117352000: system.membus: Packet Context ID: 1
117427000: system.membus: Packet Context ID: 1
117501000: system.membus: Packet Context ID: 1
117585000: system.membus: Packet Context ID: 1
117671500: system.membus: Packet Context ID: 1
117758000: system.membus: Packet Context ID: 1
117845000: system.membus: Packet Context ID: 1
117920000: system.membus: Packet Context ID: 1
118010000: system.membus: Packet Context ID: 1
118060500: system.membus: Packet Context ID: 1
118157000: system.membus: Packet Context ID: 1
118162000: system.membus: Packet Context ID: 1
118234500: system.membus: Packet Context ID: 1
118237000: system.membus: Packet Context ID: 1
118242500: system.membus: Packet Context ID: 1
118245500: system.membus: Packet Context ID: 1
118347000: system.membus: Packet Context ID: 1
118351000: system.membus: Packet Context ID: 1
118424500: system.membus: Packet Context ID: 1
118499500: system.membus: Packet Context ID: 1
118501000: system.membus: Packet Context ID: 1
118574000: system.membus: Packet Context ID: 1
118589000: system.membus: Packet Context ID: 1
118591500: system.membus: Packet Context ID: 1
118682500: system.membus: Packet Context ID: 1
118713000: system.membus: Packet Context ID: 1
118789000: system.membus: Packet Context ID: 1
118795000: system.membus: Packet Context ID: 1
118797000: system.membus: Packet Context ID: 1
118872500: system.membus: Packet Context ID: 1
118885000: system.membus: Packet Context ID: 1
119022000: system.membus: Packet Context ID: 1
119096500: system.membus: Packet Context ID: 1
119142000: system.membus: Packet Context ID: 1
119214500: system.membus: Packet Context ID: 1
119291500: system.membus: Packet Context ID: 1
119364500: system.membus: Packet Context ID: 1
119453500: system.membus: Packet Context ID: 1
119540500: system.membus: Packet Context ID: 1
119544500: system.membus: Packet Context ID: 1
119618500: system.membus: Packet Context ID: 1
119710500: system.membus: Packet Context ID: 1
119724500: system.membus: Packet Context ID: 1
120032500: system.membus: Packet Context ID: 1
120106500: system.membus: Packet Context ID: 1
120112000: system.membus: Packet Context ID: 1
120188500: system.membus: Packet Context ID: 1
120261500: system.membus: Packet Context ID: 1
120335500: system.membus: Packet Context ID: 1
120419000: system.membus: Packet Context ID: 1
120426500: system.membus: Packet Context ID: 1
120506500: system.membus: Packet Context ID: 1
120608000: system.membus: Packet Context ID: 1
120681500: system.membus: Packet Context ID: 1
120756000: system.membus: Packet Context ID: 1
120830000: system.membus: Packet Context ID: 1
120904500: system.membus: Packet Context ID: 1
120978500: system.membus: Packet Context ID: 1
120982000: system.membus: Packet Context ID: 1
121057500: system.membus: Packet Context ID: 1
121131500: system.membus: Packet Context ID: 1
121205000: system.membus: Packet Context ID: 1
121278500: system.membus: Packet Context ID: 1
121288000: system.membus: Packet Context ID: 1
121361000: system.membus: Packet Context ID: 1
121370000: system.membus: Packet Context ID: 1
121462000: system.membus: Packet Context ID: 1
121540500: system.membus: Packet Context ID: 1
121629000: system.membus: Packet Context ID: 1
121659500: system.membus: Packet Context ID: 1
121734000: system.membus: Packet Context ID: 1
121737000: system.membus: Packet Context ID: 1
121812000: system.membus: Packet Context ID: 1
121815500: system.membus: Packet Context ID: 1
121886000: system.membus: Packet Context ID: 1
121962500: system.membus: Packet Context ID: 1
122063500: system.membus: Packet Context ID: 1
122069500: system.membus: Packet Context ID: 1
122162000: system.membus: Packet Context ID: 1
122236000: system.membus: Packet Context ID: 1
122295500: system.membus: Packet Context ID: 1
122368500: system.membus: Packet Context ID: 1
122468500: system.membus: Packet Context ID: 1
122571000: system.membus: Packet Context ID: 1
122574500: system.membus: Packet Context ID: 1
122649500: system.membus: Packet Context ID: 1
122723000: system.membus: Packet Context ID: 1
122726000: system.membus: Packet Context ID: 1
122727500: system.membus: Packet Context ID: 1
122811500: system.membus: Packet Context ID: 1
122814000: system.membus: Packet Context ID: 1
122817500: system.membus: Packet Context ID: 1
122899500: system.membus: Packet Context ID: 1
122973500: system.membus: Packet Context ID: 1
122982500: system.membus: Packet Context ID: 1
123056000: system.membus: Packet Context ID: 1
123059500: system.membus: Packet Context ID: 1
123064000: system.membus: Packet Context ID: 1
123065000: system.membus: Packet Context ID: 1
123129500: system.membus: Packet Context ID: 1
123202500: system.membus: Packet Context ID: 1
123279500: system.membus: Packet Context ID: 1
123286000: system.membus: Packet Context ID: 1
123293000: system.membus: Packet Context ID: 1
123305000: system.membus: Packet Context ID: 1
123308500: system.membus: Packet Context ID: 1
123430000: system.membus: Packet Context ID: 1
123434000: system.membus: Packet Context ID: 1
123537500: system.membus: Packet Context ID: 1
123613000: system.membus: Packet Context ID: 1
123692500: system.membus: Packet Context ID: 1
123779500: system.membus: Packet Context ID: 1
123853500: system.membus: Packet Context ID: 1
123865500: system.cpu1: suspend contextId 1
Exiting @ tick 3597263072500 because user interrupt received
