gem5 Simulator System.  http://gem5.org
gem5 is copyrighted software; use the --copyright option for details.

gem5 compiled May 13 2020 18:59:36
gem5 started May 13 2020 19:00:03
gem5 executing on arul-gaming-pc, pid 13104
command line: ./build/ARM/gem5.opt --debug-flags=MITTS ./configs/example/se.py --caches --l2cache -c ./tests/test-progs/hello/bin/arm/linux/hello --cpu-type=DerivO3CPU --MITTS --MITTS_File configs/MITTS/MITTSParamsDefault

5000 

100

5

5 10 15 20 25
Global frequency set at 1000000000000 ticks per second
system.cpu.dcache.cpu_side
      0: system.cpu.dcache: MITTS Enable 1
      0: system.cpu.dcache: Replenish Period 5000
      0: system.cpu.dcache: Time Interval 100
      0: system.cpu.dcache: Num Bins 5
      0: system.cpu.dcache: Bin Credits 5 10 15 20 25
      0: global: Orig C STRING IS 5 10 15 20 25
      0: global: New C STRING IS 5
      0: global: Credit 5 at bin 0
      0: global: Credit 10 at bin 1
      0: global: Credit 15 at bin 2
      0: global: Credit 20 at bin 3
      0: global: Credit 25 at bin 4
      0: global: Replenishing Bins
system.cpu.icache.cpu_side
      0: system.cpu.icache: MITTS Enable 0
      0: system.cpu.icache: Replenish Period 0
      0: system.cpu.icache: Time Interval 0
      0: system.cpu.icache: Num Bins 0
      0: system.cpu.icache: Bin Credits 
system.l2.cpu_side
      0: system.l2: MITTS Enable 0
      0: system.l2: Replenish Period 0
      0: system.l2: Time Interval 0
      0: system.l2: Num Bins 0
      0: system.l2: Bin Credits 
**** REAL SIMULATION ****
   1000: system.cpu.icache: Creating miss packet
  11500: system.l2: Creating miss packet
  90500: system.cpu.icache: Creating miss packet
  91500: system.cpu.dcache: Intial Forward Time: 92500 Request Time: 92500 
  91500: global: Deducting a bin
  91500: global: Bin Chosen: 4
  91500: global: Bins Left: 24
  91500: system.cpu.dcache: MITTS Forward Time: 92500 Request Time: 92500 
  91500: system.cpu.dcache: Intial Forward Time: 92500 Request Time: 92500 
  91500: global: Deducting a bin
  91500: global: Bin Chosen: 0
  91500: global: Bins Left: 4
  91500: system.cpu.dcache: MITTS Forward Time: 92500 Request Time: 92500 
  92000: system.cpu.icache: Creating miss packet
  92000: system.cpu.dcache: Intial Forward Time: 93000 Request Time: 93000 
  92000: global: Deducting a bin
  92000: global: Bin Chosen: 4
  92000: global: Bins Left: 23
  92000: system.cpu.dcache: MITTS Forward Time: 93000 Request Time: 93000 
  92000: system.cpu.dcache: Intial Forward Time: 93000 Request Time: 93000 
  92000: global: Deducting a bin
  92000: global: Bin Chosen: 0
  92000: global: Bins Left: 3
  92000: system.cpu.dcache: MITTS Forward Time: 93000 Request Time: 93000 
  92500: system.cpu.dcache: Creating miss packet
  92501: system.cpu.dcache: Creating miss packet
  93000: system.cpu.dcache: Creating miss packet
  93001: system.cpu.dcache: Creating miss packet
  93500: system.cpu.dcache: Creating miss packet
 101000: system.l2: Creating miss packet
 102500: system.l2: Creating miss packet
 103500: system.l2: Creating miss packet
 104000: system.l2: Creating miss packet
 169000: system.cpu.icache: Creating miss packet
 170000: system.cpu.dcache: Intial Forward Time: 171000 Request Time: 171000 
 170000: global: Deducting a bin
 170000: global: Bin Chosen: 4
 170000: global: Bins Left: 22
 170000: system.cpu.dcache: MITTS Forward Time: 171000 Request Time: 171000 
 171000: system.cpu.dcache: Creating miss packet
 179500: system.l2: Creating miss packet
 181500: system.l2: Creating miss packet
 242000: system.cpu.icache: Creating miss packet
 243500: system.cpu.dcache: Intial Forward Time: 244500 Request Time: 244500 
 243500: global: Deducting a bin
 243500: global: Bin Chosen: 4
 243500: global: Bins Left: 21
 243500: system.cpu.dcache: MITTS Forward Time: 244500 Request Time: 244500 
 244000: system.cpu.dcache: Intial Forward Time: 245000 Request Time: 245000 
 244000: global: Deducting a bin
 244000: global: Bin Chosen: 4
 244000: global: Bins Left: 20
 244000: system.cpu.dcache: MITTS Forward Time: 245000 Request Time: 245000 
 248500: system.cpu.dcache: Intial Forward Time: 249500 Request Time: 249500 
 248500: global: Deducting a bin
 248500: global: Bin Chosen: 4
 248500: global: Bins Left: 19
 248500: system.cpu.dcache: MITTS Forward Time: 249500 Request Time: 249500 
 248500: system.cpu.dcache: Intial Forward Time: 249500 Request Time: 249500 
 248500: global: Deducting a bin
 248500: global: Bin Chosen: 0
 248500: global: Bins Left: 2
 248500: system.cpu.dcache: MITTS Forward Time: 249500 Request Time: 249500 
 248500: system.cpu.dcache: Intial Forward Time: 249500 Request Time: 249500 
 248500: global: Deducting a bin
 248500: global: Bin Chosen: 0
 248500: global: Bins Left: 1
 248500: system.cpu.dcache: MITTS Forward Time: 249500 Request Time: 249500 
 249500: system.cpu.dcache: Creating miss packet
 249500: system.cpu.dcache: Intial Forward Time: 250500 Request Time: 250500 
 249500: global: Deducting a bin
 249500: global: Bin Chosen: 4
 249500: global: Bins Left: 18
 249500: system.cpu.dcache: MITTS Forward Time: 250500 Request Time: 250500 
 250500: system.cpu.dcache: Creating miss packet
 252500: system.l2: Creating miss packet
 260000: system.l2: Creating miss packet
 261000: system.l2: Creating miss packet
 261000: system.l2: Creating miss packet
 315500: system.cpu.icache: Creating miss packet
 316500: system.cpu.icache: Creating miss packet
 319500: system.cpu.dcache: Intial Forward Time: 320500 Request Time: 320500 
 319500: global: Deducting a bin
 319500: global: Bin Chosen: 4
 319500: global: Bins Left: 17
 319500: system.cpu.dcache: MITTS Forward Time: 320500 Request Time: 320500 
 320000: system.cpu.dcache: Intial Forward Time: 321000 Request Time: 321000 
 320000: global: Deducting a bin
 320000: global: Bin Chosen: 4
 320000: global: Bins Left: 16
 320000: system.cpu.dcache: MITTS Forward Time: 321000 Request Time: 321000 
 320500: system.cpu.dcache: Creating miss packet
 321000: system.cpu.dcache: Creating miss packet
 321000: system.cpu.dcache: Creating miss packet
 326000: system.l2: Creating miss packet
 327000: system.l2: Creating miss packet
 327000: system.l2: Creating miss packet
 331000: system.l2: Creating miss packet
 331500: system.l2: Creating miss packet
 332000: system.l2: Creating miss packet
 403000: system.cpu.icache: Creating miss packet
 407000: system.cpu.dcache: Intial Forward Time: 408000 Request Time: 408000 
 407000: global: Deducting a bin
 407000: global: Bin Chosen: 4
 407000: global: Bins Left: 15
 407000: system.cpu.dcache: MITTS Forward Time: 408000 Request Time: 408000 
 407000: system.cpu.dcache: Intial Forward Time: 408000 Request Time: 408000 
 407000: global: Deducting a bin
 407000: global: Bin Chosen: 0
 407000: global: Bins Left: 0
 407000: system.cpu.dcache: MITTS Forward Time: 408000 Request Time: 408000 
 407000: system.cpu.dcache: Intial Forward Time: 408000 Request Time: 408000 
 407000: global: Deducting a bin
 407000: global: Bin Chosen: 0
 407000: global: Blocking request
 407000: global: Bins Left: 0
 407000: global: List size is 0
 407000: global: Here
 407000: global: Latency 3000
 407000: system.cpu.dcache: MITTS Forward Time: 411000 Request Time: 408000 
 407000: system.cpu.dcache: Intial Forward Time: 408000 Request Time: 408000 
 407000: global: Deducting a bin
 407000: global: Bin Chosen: 0
 407000: global: Blocking request
 407000: global: Bins Left: 0
 407000: global: List size is 1
 407000: global: Req Time 407000, Latency 3000
 407000: global: There
 407000: global: 1
 407000: global: 2
 407000: global: Latency 3000
 407000: system.cpu.dcache: MITTS Forward Time: 411000 Request Time: 408000 
 408000: system.cpu.dcache: Creating miss packet
 413500: system.l2: Creating miss packet
 418500: system.l2: Creating miss packet
 476000: system.cpu.icache: Creating miss packet
 477000: system.cpu.dcache: Intial Forward Time: 478000 Request Time: 478000 
 477000: global: Deducting a bin
 477000: global: Bin Chosen: 4
 477000: global: Bins Left: 24
 477000: system.cpu.dcache: MITTS Forward Time: 478000 Request Time: 478000 
 477000: system.cpu.dcache: Intial Forward Time: 478000 Request Time: 478000 
 477000: global: Deducting a bin
 477000: global: Bin Chosen: 0
 477000: global: Bins Left: 2
 477000: system.cpu.dcache: MITTS Forward Time: 478000 Request Time: 478000 
 477000: system.cpu.dcache: Intial Forward Time: 478000 Request Time: 478000 
 477000: global: Deducting a bin
 477000: global: Bin Chosen: 0
 477000: global: Bins Left: 1
 477000: system.cpu.dcache: MITTS Forward Time: 478000 Request Time: 478000 
 477500: system.cpu.dcache: Intial Forward Time: 478500 Request Time: 478500 
 477500: global: Deducting a bin
 477500: global: Bin Chosen: 4
 477500: global: Bins Left: 23
 477500: system.cpu.dcache: MITTS Forward Time: 478500 Request Time: 478500 
 478000: system.cpu.dcache: Creating miss packet
 478001: system.cpu.dcache: Creating miss packet
 478500: system.cpu.dcache: Creating miss packet
 486500: system.l2: Creating miss packet
 488500: system.l2: Creating miss packet
 489000: system.l2: Creating miss packet
 490000: system.l2: Creating miss packet
 549000: system.cpu.icache: Creating miss packet
 550000: system.cpu.dcache: Intial Forward Time: 551000 Request Time: 551000 
 550000: global: Deducting a bin
 550000: global: Bin Chosen: 4
 550000: global: Bins Left: 22
 550000: system.cpu.dcache: MITTS Forward Time: 551000 Request Time: 551000 
 550000: system.cpu.dcache: Intial Forward Time: 551000 Request Time: 551000 
 550000: global: Deducting a bin
 550000: global: Bin Chosen: 0
 550000: global: Bins Left: 0
 550000: system.cpu.dcache: MITTS Forward Time: 551000 Request Time: 551000 
 550000: system.cpu.dcache: Intial Forward Time: 551000 Request Time: 551000 
 550000: global: Deducting a bin
 550000: global: Bin Chosen: 0
 550000: global: Blocking request
 550000: global: Bins Left: 0
 550000: global: List size is 0
 550000: global: Here
 550000: global: Latency 5000
 550000: system.cpu.dcache: MITTS Forward Time: 556000 Request Time: 551000 
 550000: system.cpu.dcache: Intial Forward Time: 551000 Request Time: 551000 
 550000: global: Deducting a bin
 550000: global: Bin Chosen: 0
 550000: global: Blocking request
 550000: global: Bins Left: 0
 550000: global: List size is 1
 550000: global: Req Time 550000, Latency 5000
 550000: global: There
 550000: global: 1
 550000: global: 2
 550000: global: Latency 5000
 550000: system.cpu.dcache: MITTS Forward Time: 556000 Request Time: 551000 
 550500: system.cpu.icache: Creating miss packet
 551500: system.cpu.dcache: Intial Forward Time: 552500 Request Time: 552500 
 551500: global: Deducting a bin
 551500: global: Bin Chosen: 4
 551500: global: Bins Left: 21
 551500: system.cpu.dcache: MITTS Forward Time: 552500 Request Time: 552500 
 552500: system.cpu.dcache: Creating miss packet
 553000: system.cpu.dcache: Intial Forward Time: 554000 Request Time: 554000 
 553000: global: Deducting a bin
 553000: global: Bin Chosen: 4
 553000: global: Bins Left: 20
 553000: system.cpu.dcache: MITTS Forward Time: 554000 Request Time: 554000 
 554000: system.cpu.dcache: Creating miss packet
 558000: system.cpu.dcache: Intial Forward Time: 559000 Request Time: 559000 
 558000: global: Deducting a bin
 558000: global: Bin Chosen: 4
 558000: global: Bins Left: 24
 558000: system.cpu.dcache: MITTS Forward Time: 559000 Request Time: 559000 
 558000: system.cpu.dcache: Intial Forward Time: 559000 Request Time: 559000 
 558000: global: Deducting a bin
 558000: global: Bin Chosen: 0
 558000: global: Bins Left: 2
 558000: system.cpu.dcache: MITTS Forward Time: 559000 Request Time: 559000 
 559000: system.cpu.dcache: Creating miss packet
 559500: system.l2: Creating miss packet
 559500: system.cpu.dcache: Intial Forward Time: 560500 Request Time: 560500 
 559500: global: Deducting a bin
 559500: global: Bin Chosen: 4
 559500: global: Bins Left: 23
 559500: system.cpu.dcache: MITTS Forward Time: 560500 Request Time: 560500 
 559500: system.cpu.dcache: Intial Forward Time: 560500 Request Time: 560500 
 559500: global: Deducting a bin
 559500: global: Bin Chosen: 0
 559500: global: Bins Left: 1
 559500: system.cpu.dcache: MITTS Forward Time: 560500 Request Time: 560500 
 559500: system.cpu.dcache: Intial Forward Time: 560500 Request Time: 560500 
 559500: global: Deducting a bin
 559500: global: Bin Chosen: 0
 559500: global: Bins Left: 0
 559500: system.cpu.dcache: MITTS Forward Time: 560500 Request Time: 560500 
 559500: system.cpu.dcache: Intial Forward Time: 560500 Request Time: 560500 
 559500: global: Deducting a bin
 559500: global: Bin Chosen: 0
 559500: global: Blocking request
 559500: global: Bins Left: 0
 559500: global: List size is 0
 559500: global: Here
 559500: global: Latency 500
 559500: system.cpu.dcache: MITTS Forward Time: 561000 Request Time: 560500 
 560000: system.cpu.dcache: Intial Forward Time: 561000 Request Time: 561000 
 560000: global: Deducting a bin
 560000: global: Bin Chosen: 4
 560000: global: Bins Left: 24
 560000: system.cpu.dcache: MITTS Forward Time: 561000 Request Time: 561000 
 560500: system.cpu.dcache: Creating miss packet
 561000: system.l2: Creating miss packet
 561000: system.l2: Creating miss packet
 564500: system.l2: Creating miss packet
 569500: system.l2: Creating miss packet
 571000: system.l2: Creating miss packet
 571000: system.l2: Creating miss packet
 623500: system.cpu.icache: Creating miss packet
 634000: system.l2: Creating miss packet
 695500: system.cpu.icache: Creating miss packet
 706000: system.l2: Creating miss packet
 770500: system.cpu.icache: Creating miss packet
 777000: system.cpu.dcache: Intial Forward Time: 778000 Request Time: 778000 
 777000: global: Deducting a bin
 777000: global: Bin Chosen: 4
 777000: global: Bins Left: 23
 777000: system.cpu.dcache: MITTS Forward Time: 778000 Request Time: 778000 
 778000: system.cpu.dcache: Creating miss packet
 781000: system.l2: Creating miss packet
 783500: system.cpu.dcache: Intial Forward Time: 784500 Request Time: 784500 
 783500: global: Deducting a bin
 783500: global: Bin Chosen: 4
 783500: global: Bins Left: 22
 783500: system.cpu.dcache: MITTS Forward Time: 784500 Request Time: 784500 
 788500: system.l2: Creating miss packet
 850500: system.cpu.icache: Creating miss packet
 859000: system.cpu.dcache: Intial Forward Time: 860000 Request Time: 860000 
 859000: global: Deducting a bin
 859000: global: Bin Chosen: 4
 859000: global: Bins Left: 21
 859000: system.cpu.dcache: MITTS Forward Time: 860000 Request Time: 860000 
 860000: system.cpu.dcache: Creating miss packet
 861000: system.l2: Creating miss packet
 870500: system.l2: Creating miss packet
 934000: system.cpu.icache: Creating miss packet
 963000: system.cpu.icache: Creating miss packet
 973500: system.l2: Creating miss packet
1004500: system.cpu.icache: Creating miss packet
1028500: system.cpu.dcache: Intial Forward Time: 1029500 Request Time: 1029500 
1028500: global: Deducting a bin
1028500: global: Bin Chosen: 4
1028500: global: Bins Left: 20
1028500: system.cpu.dcache: MITTS Forward Time: 1029500 Request Time: 1029500 
1029500: system.cpu.dcache: Creating miss packet
1046000: system.cpu.icache: Creating miss packet
1075000: system.cpu.dcache: Intial Forward Time: 1076000 Request Time: 1076000 
1075000: global: Deducting a bin
1075000: global: Bin Chosen: 4
1075000: global: Bins Left: 19
1075000: system.cpu.dcache: MITTS Forward Time: 1076000 Request Time: 1076000 
1076000: system.cpu.dcache: Creating miss packet
1082000: system.cpu.dcache: Intial Forward Time: 1083000 Request Time: 1083000 
1082000: global: Deducting a bin
1082000: global: Bin Chosen: 4
1082000: global: Bins Left: 18
1082000: system.cpu.dcache: MITTS Forward Time: 1083000 Request Time: 1083000 
1086500: system.l2: Creating miss packet
1089500: system.cpu.icache: Creating miss packet
1100000: system.l2: Creating miss packet
1187000: system.cpu.icache: Creating miss packet
1197500: system.l2: Creating miss packet
1314000: system.cpu.icache: Creating miss packet
1324500: system.l2: Creating miss packet
1334500: system.cpu.dcache: Intial Forward Time: 1335500 Request Time: 1335500 
1334500: global: Deducting a bin
1334500: global: Bin Chosen: 4
1334500: global: Bins Left: 17
1334500: system.cpu.dcache: MITTS Forward Time: 1335500 Request Time: 1335500 
1334500: system.cpu.dcache: Intial Forward Time: 1335500 Request Time: 1335500 
1334500: global: Deducting a bin
1334500: global: Bin Chosen: 0
1334500: global: Bins Left: 3
1334500: system.cpu.dcache: MITTS Forward Time: 1335500 Request Time: 1335500 
1335500: system.cpu.dcache: Creating miss packet
1346000: system.l2: Creating miss packet
1388000: system.cpu.icache: Creating miss packet
1388500: system.cpu.dcache: Intial Forward Time: 1389500 Request Time: 1389500 
1388500: global: Deducting a bin
1388500: global: Bin Chosen: 4
1388500: global: Bins Left: 16
1388500: system.cpu.dcache: MITTS Forward Time: 1389500 Request Time: 1389500 
1391500: system.cpu.dcache: Intial Forward Time: 1392500 Request Time: 1392500 
1391500: global: Deducting a bin
1391500: global: Bin Chosen: 4
1391500: global: Bins Left: 15
1391500: system.cpu.dcache: MITTS Forward Time: 1392500 Request Time: 1392500 
1391500: system.cpu.dcache: Intial Forward Time: 1392500 Request Time: 1392500 
1391500: global: Deducting a bin
1391500: global: Bin Chosen: 0
1391500: global: Bins Left: 2
1391500: system.cpu.dcache: MITTS Forward Time: 1392500 Request Time: 1392500 
1392500: system.cpu.dcache: Creating miss packet
1393000: system.cpu.dcache: Intial Forward Time: 1394000 Request Time: 1394000 
1393000: global: Deducting a bin
1393000: global: Bin Chosen: 4
1393000: global: Bins Left: 14
1393000: system.cpu.dcache: MITTS Forward Time: 1394000 Request Time: 1394000 
1394500: system.cpu.dcache: Intial Forward Time: 1395500 Request Time: 1395500 
1394500: global: Deducting a bin
1394500: global: Bin Chosen: 4
1394500: global: Bins Left: 13
1394500: system.cpu.dcache: MITTS Forward Time: 1395500 Request Time: 1395500 
1394500: system.cpu.dcache: Intial Forward Time: 1395500 Request Time: 1395500 
1394500: global: Deducting a bin
1394500: global: Bin Chosen: 0
1394500: global: Bins Left: 1
1394500: system.cpu.dcache: MITTS Forward Time: 1395500 Request Time: 1395500 
1396000: system.cpu.dcache: Intial Forward Time: 1397000 Request Time: 1397000 
1396000: global: Deducting a bin
1396000: global: Bin Chosen: 4
1396000: global: Bins Left: 12
1396000: system.cpu.dcache: MITTS Forward Time: 1397000 Request Time: 1397000 
1398500: system.l2: Creating miss packet
1403000: system.l2: Creating miss packet
1420500: system.cpu.dcache: Intial Forward Time: 1421500 Request Time: 1421500 
1420500: global: Deducting a bin
1420500: global: Bin Chosen: 4
1420500: global: Bins Left: 11
1420500: system.cpu.dcache: MITTS Forward Time: 1421500 Request Time: 1421500 
1420500: system.cpu.dcache: Intial Forward Time: 1421500 Request Time: 1421500 
1420500: global: Deducting a bin
1420500: global: Bin Chosen: 0
1420500: global: Bins Left: 0
1420500: system.cpu.dcache: MITTS Forward Time: 1421500 Request Time: 1421500 
1421500: system.cpu.dcache: Intial Forward Time: 1422500 Request Time: 1422500 
1421500: global: Deducting a bin
1421500: global: Bin Chosen: 4
1421500: global: Bins Left: 10
1421500: system.cpu.dcache: MITTS Forward Time: 1422500 Request Time: 1422500 
1421500: system.cpu.dcache: Intial Forward Time: 1422500 Request Time: 1422500 
1421500: global: Deducting a bin
1421500: global: Bin Chosen: 0
1421500: global: Blocking request
1421500: global: Bins Left: 0
1421500: global: List size is 0
1421500: global: Here
1421500: global: Latency 3500
1421500: system.cpu.dcache: MITTS Forward Time: 1426000 Request Time: 1422500 
1463500: system.cpu.icache: Creating miss packet
1465000: system.cpu.icache: Creating miss packet
1473000: system.cpu.icache: Creating miss packet
1474000: system.l2: Creating miss packet
1475500: system.l2: Creating miss packet
1483500: system.l2: Creating miss packet
1542500: system.cpu.icache: Creating miss packet
1543500: system.cpu.icache: Creating miss packet
1553000: system.l2: Creating miss packet
1554000: system.l2: Creating miss packet
1554000: system.l2: Creating miss packet
1620500: system.cpu.icache: Creating miss packet
1621000: system.cpu.dcache: Intial Forward Time: 1622000 Request Time: 1622000 
1621000: global: Deducting a bin
1621000: global: Bin Chosen: 4
1621000: global: Bins Left: 24
1621000: system.cpu.dcache: MITTS Forward Time: 1622000 Request Time: 1622000 
1622000: system.cpu.dcache: Creating miss packet
1622000: system.cpu.dcache: Intial Forward Time: 1623000 Request Time: 1623000 
1622000: global: Deducting a bin
1622000: global: Bin Chosen: 4
1622000: global: Bins Left: 23
1622000: system.cpu.dcache: MITTS Forward Time: 1623000 Request Time: 1623000 
1631000: system.l2: Creating miss packet
1632500: system.l2: Creating miss packet
1693000: system.cpu.icache: Creating miss packet
1703500: system.l2: Creating miss packet
1707000: system.cpu.dcache: Intial Forward Time: 1708000 Request Time: 1708000 
1707000: global: Deducting a bin
1707000: global: Bin Chosen: 4
1707000: global: Bins Left: 22
1707000: system.cpu.dcache: MITTS Forward Time: 1708000 Request Time: 1708000 
1707000: system.cpu.dcache: Intial Forward Time: 1708000 Request Time: 1708000 
1707000: global: Deducting a bin
1707000: global: Bin Chosen: 0
1707000: global: Bins Left: 3
1707000: system.cpu.dcache: MITTS Forward Time: 1708000 Request Time: 1708000 
1707000: system.cpu.dcache: Intial Forward Time: 1708000 Request Time: 1708000 
1707000: global: Deducting a bin
1707000: global: Bin Chosen: 0
1707000: global: Bins Left: 2
1707000: system.cpu.dcache: MITTS Forward Time: 1708000 Request Time: 1708000 
1707000: system.cpu.dcache: Intial Forward Time: 1708000 Request Time: 1708000 
1707000: global: Deducting a bin
1707000: global: Bin Chosen: 0
1707000: global: Bins Left: 1
1707000: system.cpu.dcache: MITTS Forward Time: 1708000 Request Time: 1708000 
1707500: system.cpu.dcache: Intial Forward Time: 1708500 Request Time: 1708500 
1707500: global: Deducting a bin
1707500: global: Bin Chosen: 4
1707500: global: Bins Left: 21
1707500: system.cpu.dcache: MITTS Forward Time: 1708500 Request Time: 1708500 
1708000: system.cpu.dcache: Creating miss packet
1708001: system.cpu.dcache: Creating miss packet
1708500: system.cpu.dcache: Creating miss packet
1718500: system.l2: Creating miss packet
1719000: system.l2: Creating miss packet
1720000: system.l2: Creating miss packet
1766500: system.cpu.icache: Creating miss packet
1768000: system.cpu.icache: Creating miss packet
1777000: system.l2: Creating miss packet
1778500: system.l2: Creating miss packet
1787500: system.cpu.dcache: Intial Forward Time: 1788500 Request Time: 1788500 
1787500: global: Deducting a bin
1787500: global: Bin Chosen: 4
1787500: global: Bins Left: 20
1787500: system.cpu.dcache: MITTS Forward Time: 1788500 Request Time: 1788500 
1788000: system.cpu.dcache: Intial Forward Time: 1789000 Request Time: 1789000 
1788000: global: Deducting a bin
1788000: global: Bin Chosen: 4
1788000: global: Bins Left: 19
1788000: system.cpu.dcache: MITTS Forward Time: 1789000 Request Time: 1789000 
1788500: system.cpu.dcache: Creating miss packet
1788500: system.cpu.dcache: Intial Forward Time: 1789500 Request Time: 1789500 
1788500: global: Deducting a bin
1788500: global: Bin Chosen: 4
1788500: global: Bins Left: 18
1788500: system.cpu.dcache: MITTS Forward Time: 1789500 Request Time: 1789500 
1789000: system.cpu.dcache: Intial Forward Time: 1790000 Request Time: 1790000 
1789000: global: Deducting a bin
1789000: global: Bin Chosen: 4
1789000: global: Bins Left: 17
1789000: system.cpu.dcache: MITTS Forward Time: 1790000 Request Time: 1790000 
1789500: system.cpu.dcache: Creating miss packet
1789500: system.cpu.dcache: Intial Forward Time: 1790500 Request Time: 1790500 
1789500: global: Deducting a bin
1789500: global: Bin Chosen: 4
1789500: global: Bins Left: 16
1789500: system.cpu.dcache: MITTS Forward Time: 1790500 Request Time: 1790500 
1790000: system.cpu.dcache: Intial Forward Time: 1791000 Request Time: 1791000 
1790000: global: Deducting a bin
1790000: global: Bin Chosen: 4
1790000: global: Bins Left: 15
1790000: system.cpu.dcache: MITTS Forward Time: 1791000 Request Time: 1791000 
1790500: system.cpu.dcache: Creating miss packet
1790500: system.cpu.dcache: Intial Forward Time: 1791500 Request Time: 1791500 
1790500: global: Deducting a bin
1790500: global: Bin Chosen: 4
1790500: global: Bins Left: 14
1790500: system.cpu.dcache: MITTS Forward Time: 1791500 Request Time: 1791500 
1799000: system.l2: Creating miss packet
1800000: system.l2: Creating miss packet
1800000: system.l2: Creating miss packet
1801000: system.l2: Creating miss packet
1801000: system.l2: Creating miss packet
1853500: system.cpu.icache: Creating miss packet
1855000: system.cpu.icache: Creating miss packet
1856000: system.cpu.dcache: Intial Forward Time: 1857000 Request Time: 1857000 
1856000: global: Deducting a bin
1856000: global: Bin Chosen: 4
1856000: global: Bins Left: 13
1856000: system.cpu.dcache: MITTS Forward Time: 1857000 Request Time: 1857000 
1857000: system.cpu.dcache: Creating miss packet
1864000: system.l2: Creating miss packet
1865500: system.l2: Creating miss packet
1867500: system.l2: Creating miss packet
1882500: system.cpu.icache: Creating miss packet
1887500: system.cpu.icache: Creating miss packet
1893000: system.l2: Creating miss packet
1898000: system.l2: Creating miss packet
1972500: system.cpu.icache: Creating miss packet
1983000: system.l2: Creating miss packet
2048000: system.cpu.icache: Creating miss packet
2049500: system.cpu.dcache: Intial Forward Time: 2050500 Request Time: 2050500 
2049500: global: Deducting a bin
2049500: global: Bin Chosen: 4
2049500: global: Bins Left: 12
2049500: system.cpu.dcache: MITTS Forward Time: 2050500 Request Time: 2050500 
2050500: system.cpu.dcache: Creating miss packet
2058500: system.l2: Creating miss packet
2061000: system.l2: Creating miss packet
2122000: system.cpu.dcache: Intial Forward Time: 2123000 Request Time: 2123000 
2122000: global: Deducting a bin
2122000: global: Bin Chosen: 4
2122000: global: Bins Left: 11
2122000: system.cpu.dcache: MITTS Forward Time: 2123000 Request Time: 2123000 
2123500: system.cpu.icache: Creating miss packet
2125000: system.cpu.icache: Creating miss packet
2125000: system.cpu.dcache: Intial Forward Time: 2126000 Request Time: 2126000 
2125000: global: Deducting a bin
2125000: global: Bin Chosen: 4
2125000: global: Bins Left: 10
2125000: system.cpu.dcache: MITTS Forward Time: 2126000 Request Time: 2126000 
2126000: system.cpu.dcache: Creating miss packet
2134000: system.l2: Creating miss packet
2136500: system.l2: Creating miss packet
2140500: system.cpu.icache: Creating miss packet
2140500: system.cpu.dcache: Intial Forward Time: 2141500 Request Time: 2141500 
2140500: global: Deducting a bin
2140500: global: Bin Chosen: 4
2140500: global: Bins Left: 9
2140500: system.cpu.dcache: MITTS Forward Time: 2141500 Request Time: 2141500 
2151000: system.l2: Creating miss packet
2241500: system.cpu.icache: Creating miss packet
2244500: system.cpu.dcache: Intial Forward Time: 2245500 Request Time: 2245500 
2244500: global: Deducting a bin
2244500: global: Bin Chosen: 4
2244500: global: Bins Left: 8
2244500: system.cpu.dcache: MITTS Forward Time: 2245500 Request Time: 2245500 
2245500: system.cpu.dcache: Creating miss packet
2252000: system.l2: Creating miss packet
2256000: system.l2: Creating miss packet
2335500: system.cpu.dcache: Intial Forward Time: 2336500 Request Time: 2336500 
2335500: global: Deducting a bin
2335500: global: Bin Chosen: 4
2335500: global: Bins Left: 7
2335500: system.cpu.dcache: MITTS Forward Time: 2336500 Request Time: 2336500 
2336500: system.cpu.dcache: Creating miss packet
2347000: system.l2: Creating miss packet
2442500: system.cpu.icache: Creating miss packet
2444500: system.cpu.dcache: Intial Forward Time: 2445500 Request Time: 2445500 
2444500: global: Deducting a bin
2444500: global: Bin Chosen: 4
2444500: global: Bins Left: 6
2444500: system.cpu.dcache: MITTS Forward Time: 2445500 Request Time: 2445500 
2445000: system.cpu.dcache: Intial Forward Time: 2446000 Request Time: 2446000 
2445000: global: Deducting a bin
2445000: global: Bin Chosen: 4
2445000: global: Bins Left: 5
2445000: system.cpu.dcache: MITTS Forward Time: 2446000 Request Time: 2446000 
2445000: system.cpu.dcache: Intial Forward Time: 2446000 Request Time: 2446000 
2445000: global: Deducting a bin
2445000: global: Bin Chosen: 0
2445000: global: Bins Left: 0
2445000: system.cpu.dcache: MITTS Forward Time: 2446000 Request Time: 2446000 
2445500: system.cpu.dcache: Creating miss packet
2446000: system.cpu.dcache: Creating miss packet
2446000: system.cpu.dcache: Creating miss packet
2446001: system.cpu.dcache: Creating miss packet
2446500: system.cpu.dcache: Creating miss packet
2446500: system.cpu.dcache: Intial Forward Time: 2447500 Request Time: 2447500 
2446500: global: Deducting a bin
2446500: global: Bin Chosen: 4
2446500: global: Bins Left: 4
2446500: system.cpu.dcache: MITTS Forward Time: 2447500 Request Time: 2447500 
2453000: system.l2: Creating miss packet
2456000: system.l2: Creating miss packet
2456500: system.l2: Creating miss packet
2457000: system.l2: Creating miss packet
2457001: system.l2: Creating miss packet
2458000: system.l2: Creating miss packet
2542500: system.cpu.icache: Creating miss packet
2553000: system.l2: Creating miss packet
2616500: system.cpu.icache: Creating miss packet
2616500: system.cpu.dcache: Intial Forward Time: 2617500 Request Time: 2617500 
2616500: global: Deducting a bin
2616500: global: Bin Chosen: 4
2616500: global: Bins Left: 3
2616500: system.cpu.dcache: MITTS Forward Time: 2617500 Request Time: 2617500 
2616500: system.cpu.dcache: Intial Forward Time: 2617500 Request Time: 2617500 
2616500: global: Deducting a bin
2616500: global: Bin Chosen: 0
2616500: global: Blocking request
2616500: global: Bins Left: 0
2616500: global: List size is 0
2616500: global: Here
2616500: global: Latency 3500
2616500: system.cpu.dcache: MITTS Forward Time: 2621000 Request Time: 2617500 
2617500: system.cpu.dcache: Creating miss packet
2617500: system.cpu.icache: Creating miss packet
2618000: system.cpu.icache: Creating miss packet
2627000: system.l2: Creating miss packet
2628000: system.l2: Creating miss packet
2628000: system.l2: Creating miss packet
2628500: system.l2: Creating miss packet
2629000: system.l2: Creating miss packet
2690500: system.cpu.dcache: Intial Forward Time: 2691500 Request Time: 2691500 
2690500: global: Deducting a bin
2690500: global: Bin Chosen: 4
2690500: global: Bins Left: 24
2690500: system.cpu.dcache: MITTS Forward Time: 2691500 Request Time: 2691500 
2691000: system.cpu.dcache: Intial Forward Time: 2692000 Request Time: 2692000 
2691000: global: Deducting a bin
2691000: global: Bin Chosen: 4
2691000: global: Bins Left: 23
2691000: system.cpu.dcache: MITTS Forward Time: 2692000 Request Time: 2692000 
2691500: system.cpu.dcache: Intial Forward Time: 2692500 Request Time: 2692500 
2691500: global: Deducting a bin
2691500: global: Bin Chosen: 4
2691500: global: Bins Left: 22
2691500: system.cpu.dcache: MITTS Forward Time: 2692500 Request Time: 2692500 
2699000: system.cpu.dcache: Intial Forward Time: 2700000 Request Time: 2700000 
2699000: global: Deducting a bin
2699000: global: Bin Chosen: 4
2699000: global: Bins Left: 21
2699000: system.cpu.dcache: MITTS Forward Time: 2700000 Request Time: 2700000 
2699500: system.cpu.dcache: Intial Forward Time: 2700500 Request Time: 2700500 
2699500: global: Deducting a bin
2699500: global: Bin Chosen: 4
2699500: global: Bins Left: 20
2699500: system.cpu.dcache: MITTS Forward Time: 2700500 Request Time: 2700500 
2699500: system.cpu.dcache: Intial Forward Time: 2700500 Request Time: 2700500 
2699500: global: Deducting a bin
2699500: global: Bin Chosen: 0
2699500: global: Bins Left: 3
2699500: system.cpu.dcache: MITTS Forward Time: 2700500 Request Time: 2700500 
2699500: system.cpu.dcache: Intial Forward Time: 2700500 Request Time: 2700500 
2699500: global: Deducting a bin
2699500: global: Bin Chosen: 0
2699500: global: Bins Left: 2
2699500: system.cpu.dcache: MITTS Forward Time: 2700500 Request Time: 2700500 
2700000: system.cpu.dcache: Creating miss packet
2707500: system.cpu.icache: Creating miss packet
2708500: system.cpu.icache: Creating miss packet
2710500: system.l2: Creating miss packet
2710500: system.cpu.dcache: Intial Forward Time: 2711500 Request Time: 2711500 
2710500: global: Deducting a bin
2710500: global: Bin Chosen: 4
2710500: global: Bins Left: 19
2710500: system.cpu.dcache: MITTS Forward Time: 2711500 Request Time: 2711500 
2718000: system.l2: Creating miss packet
2719000: system.l2: Creating miss packet
2719000: system.l2: Creating miss packet
2802000: system.cpu.icache: Creating miss packet
2802000: system.cpu.dcache: Intial Forward Time: 2803000 Request Time: 2803000 
2802000: global: Deducting a bin
2802000: global: Bin Chosen: 4
2802000: global: Bins Left: 18
2802000: system.cpu.dcache: MITTS Forward Time: 2803000 Request Time: 2803000 
2803000: system.cpu.dcache: Creating miss packet
2806500: system.cpu.dcache: Intial Forward Time: 2807500 Request Time: 2807500 
2806500: global: Deducting a bin
2806500: global: Bin Chosen: 4
2806500: global: Bins Left: 17
2806500: system.cpu.dcache: MITTS Forward Time: 2807500 Request Time: 2807500 
2807000: system.cpu.icache: Creating miss packet
2807000: system.cpu.dcache: Intial Forward Time: 2808000 Request Time: 2808000 
2807000: global: Deducting a bin
2807000: global: Bin Chosen: 4
2807000: global: Bins Left: 16
2807000: system.cpu.dcache: MITTS Forward Time: 2808000 Request Time: 2808000 
2807500: system.cpu.dcache: Creating miss packet
2808000: system.cpu.dcache: Creating miss packet
2808000: system.cpu.dcache: Creating miss packet
2808000: system.cpu.dcache: Intial Forward Time: 2809000 Request Time: 2809000 
2808000: global: Deducting a bin
2808000: global: Bin Chosen: 4
2808000: global: Bins Left: 15
2808000: system.cpu.dcache: MITTS Forward Time: 2809000 Request Time: 2809000 
2811000: system.cpu.icache: Creating miss packet
2812500: system.l2: Creating miss packet
2817500: system.l2: Creating miss packet
2818000: system.l2: Creating miss packet
2819000: system.l2: Creating miss packet
2884000: system.cpu.icache: Creating miss packet
2887500: system.cpu.dcache: Intial Forward Time: 2888500 Request Time: 2888500 
2887500: global: Deducting a bin
2887500: global: Bin Chosen: 4
2887500: global: Bins Left: 14
2887500: system.cpu.dcache: MITTS Forward Time: 2888500 Request Time: 2888500 
2888000: system.cpu.dcache: Intial Forward Time: 2889000 Request Time: 2889000 
2888000: global: Deducting a bin
2888000: global: Bin Chosen: 4
2888000: global: Bins Left: 13
2888000: system.cpu.dcache: MITTS Forward Time: 2889000 Request Time: 2889000 
2888000: system.cpu.dcache: Intial Forward Time: 2889000 Request Time: 2889000 
2888000: global: Deducting a bin
2888000: global: Bin Chosen: 0
2888000: global: Bins Left: 1
2888000: system.cpu.dcache: MITTS Forward Time: 2889000 Request Time: 2889000 
2888500: system.cpu.dcache: Creating miss packet
2888500: system.cpu.dcache: Intial Forward Time: 2889500 Request Time: 2889500 
2888500: global: Deducting a bin
2888500: global: Bin Chosen: 4
2888500: global: Bins Left: 12
2888500: system.cpu.dcache: MITTS Forward Time: 2889500 Request Time: 2889500 
2889000: system.cpu.dcache: Creating miss packet
2889000: system.cpu.dcache: Creating miss packet
2889500: system.cpu.dcache: Creating miss packet
2889500: system.cpu.dcache: Creating miss packet
2890500: system.cpu.dcache: Intial Forward Time: 2891500 Request Time: 2891500 
2890500: global: Deducting a bin
2890500: global: Bin Chosen: 4
2890500: global: Bins Left: 11
2890500: system.cpu.dcache: MITTS Forward Time: 2891500 Request Time: 2891500 
2890500: system.cpu.dcache: Intial Forward Time: 2891500 Request Time: 2891500 
2890500: global: Deducting a bin
2890500: global: Bin Chosen: 0
2890500: global: Bins Left: 0
2890500: system.cpu.dcache: MITTS Forward Time: 2891500 Request Time: 2891500 
2891000: system.cpu.dcache: Intial Forward Time: 2892000 Request Time: 2892000 
2891000: global: Deducting a bin
2891000: global: Bin Chosen: 4
2891000: global: Bins Left: 10
2891000: system.cpu.dcache: MITTS Forward Time: 2892000 Request Time: 2892000 
2894500: system.l2: Creating miss packet
2899000: system.l2: Creating miss packet
2899500: system.l2: Creating miss packet
2900000: system.l2: Creating miss packet
2900001: system.l2: Creating miss packet
2901000: system.l2: Creating miss packet
2956500: system.cpu.icache: Creating miss packet
2958000: system.cpu.dcache: Intial Forward Time: 2959000 Request Time: 2959000 
2958000: global: Deducting a bin
2958000: global: Bin Chosen: 4
2958000: global: Bins Left: 9
2958000: system.cpu.dcache: MITTS Forward Time: 2959000 Request Time: 2959000 
2959000: system.cpu.dcache: Creating miss packet
2967000: system.l2: Creating miss packet
2972500: system.cpu.dcache: Intial Forward Time: 2973500 Request Time: 2973500 
2972500: global: Deducting a bin
2972500: global: Bin Chosen: 4
2972500: global: Bins Left: 8
2972500: system.cpu.dcache: MITTS Forward Time: 2973500 Request Time: 2973500 
2973500: system.cpu.dcache: Creating miss packet
2984000: system.l2: Creating miss packet
3031500: system.cpu.icache: Creating miss packet
3042000: system.l2: Creating miss packet
3064000: system.cpu.icache: Creating miss packet
3074500: system.l2: Creating miss packet
3138000: system.cpu.dcache: Intial Forward Time: 3139000 Request Time: 3139000 
3138000: global: Deducting a bin
3138000: global: Bin Chosen: 4
3138000: global: Bins Left: 7
3138000: system.cpu.dcache: MITTS Forward Time: 3139000 Request Time: 3139000 
3139000: system.cpu.dcache: Creating miss packet
3140000: system.cpu.icache: Creating miss packet
3149500: system.l2: Creating miss packet
3150500: system.l2: Creating miss packet
3151000: system.l2: Creating miss packet
3229500: system.cpu.icache: Creating miss packet
3240000: system.l2: Creating miss packet
3301500: system.cpu.icache: Creating miss packet
3303000: system.cpu.dcache: Intial Forward Time: 3304000 Request Time: 3304000 
3303000: global: Deducting a bin
3303000: global: Bin Chosen: 4
3303000: global: Bins Left: 6
3303000: system.cpu.dcache: MITTS Forward Time: 3304000 Request Time: 3304000 
3304000: system.cpu.dcache: Creating miss packet
3312000: system.l2: Creating miss packet
3378000: system.cpu.icache: Creating miss packet
3388500: system.l2: Creating miss packet
3392000: system.cpu.dcache: Intial Forward Time: 3393000 Request Time: 3393000 
3392000: global: Deducting a bin
3392000: global: Bin Chosen: 4
3392000: global: Bins Left: 5
3392000: system.cpu.dcache: MITTS Forward Time: 3393000 Request Time: 3393000 
3393000: system.cpu.dcache: Creating miss packet
3393000: system.cpu.icache: Creating miss packet
3393500: system.cpu.icache: Creating miss packet
3398000: system.cpu.icache: Creating miss packet
3403500: system.l2: Creating miss packet
3404000: system.l2: Creating miss packet
3404000: system.cpu.icache: Creating miss packet
3405000: system.l2: Creating miss packet
3405500: system.cpu.dcache: Intial Forward Time: 3406500 Request Time: 3406500 
3405500: global: Deducting a bin
3405500: global: Bin Chosen: 4
3405500: global: Bins Left: 4
3405500: system.cpu.dcache: MITTS Forward Time: 3406500 Request Time: 3406500 
3406500: system.cpu.dcache: Creating miss packet
3408500: system.l2: Creating miss packet
3414500: system.l2: Creating miss packet
3417000: system.l2: Creating miss packet
3484000: system.cpu.icache: Creating miss packet
3485000: system.cpu.dcache: Intial Forward Time: 3486000 Request Time: 3486000 
3485000: global: Deducting a bin
3485000: global: Bin Chosen: 4
3485000: global: Bins Left: 3
3485000: system.cpu.dcache: MITTS Forward Time: 3486000 Request Time: 3486000 
3485000: system.cpu.dcache: Intial Forward Time: 3486000 Request Time: 3486000 
3485000: global: Deducting a bin
3485000: global: Bin Chosen: 0
3485000: global: Blocking request
3485000: global: Bins Left: 0
3485000: global: List size is 0
3485000: global: Here
3485000: global: Latency 5000
3485000: system.cpu.dcache: MITTS Forward Time: 3491000 Request Time: 3486000 
3485500: system.cpu.icache: Creating miss packet
3489000: system.cpu.dcache: Intial Forward Time: 3490000 Request Time: 3490000 
3489000: global: Deducting a bin
3489000: global: Bin Chosen: 4
3489000: global: Bins Left: 2
3489000: system.cpu.dcache: MITTS Forward Time: 3490000 Request Time: 3490000 
3490000: system.cpu.dcache: Creating miss packet
3491000: system.cpu.dcache: Creating miss packet
3496000: system.l2: Creating miss packet
3500500: system.l2: Creating miss packet
3501500: system.l2: Creating miss packet
3502000: system.l2: Creating miss packet
3572500: system.cpu.icache: Creating miss packet
3573000: system.cpu.dcache: Intial Forward Time: 3574000 Request Time: 3574000 
3573000: global: Deducting a bin
3573000: global: Bin Chosen: 4
3573000: global: Bins Left: 24
3573000: system.cpu.dcache: MITTS Forward Time: 3574000 Request Time: 3574000 
3574000: system.cpu.dcache: Creating miss packet
3583000: system.l2: Creating miss packet
3647500: system.cpu.icache: Creating miss packet
3652500: system.cpu.icache: Creating miss packet
3663000: system.l2: Creating miss packet
3725000: system.cpu.icache: Creating miss packet
3726500: system.cpu.dcache: Intial Forward Time: 3727500 Request Time: 3727500 
3726500: global: Deducting a bin
3726500: global: Bin Chosen: 4
3726500: global: Bins Left: 23
3726500: system.cpu.dcache: MITTS Forward Time: 3727500 Request Time: 3727500 
3727500: system.cpu.dcache: Creating miss packet
3735500: system.l2: Creating miss packet
3800000: system.cpu.icache: Creating miss packet
3810500: system.l2: Creating miss packet
3873500: system.cpu.icache: Creating miss packet
3874500: system.cpu.icache: Creating miss packet
3874500: system.cpu.dcache: Intial Forward Time: 3875500 Request Time: 3875500 
3874500: global: Deducting a bin
3874500: global: Bin Chosen: 4
3874500: global: Bins Left: 22
3874500: system.cpu.dcache: MITTS Forward Time: 3875500 Request Time: 3875500 
3875000: system.cpu.dcache: Intial Forward Time: 3876000 Request Time: 3876000 
3875000: global: Deducting a bin
3875000: global: Bin Chosen: 4
3875000: global: Bins Left: 21
3875000: system.cpu.dcache: MITTS Forward Time: 3876000 Request Time: 3876000 
3875500: system.cpu.dcache: Creating miss packet
3884000: system.l2: Creating miss packet
3885000: system.l2: Creating miss packet
3885000: system.l2: Creating miss packet
3886000: system.l2: Creating miss packet
3886000: system.l2: Creating miss packet
3962500: system.cpu.icache: Creating miss packet
3973000: system.l2: Creating miss packet
4048500: system.cpu.icache: Creating miss packet
4050500: system.cpu.dcache: Intial Forward Time: 4051500 Request Time: 4051500 
4050500: global: Deducting a bin
4050500: global: Bin Chosen: 4
4050500: global: Bins Left: 20
4050500: system.cpu.dcache: MITTS Forward Time: 4051500 Request Time: 4051500 
4051500: system.cpu.dcache: Creating miss packet
4059000: system.l2: Creating miss packet
4062000: system.l2: Creating miss packet
4121500: system.cpu.icache: Creating miss packet
4132000: system.l2: Creating miss packet
4196500: system.cpu.dcache: Intial Forward Time: 4197500 Request Time: 4197500 
4196500: global: Deducting a bin
4196500: global: Bin Chosen: 4
4196500: global: Bins Left: 19
4196500: system.cpu.dcache: MITTS Forward Time: 4197500 Request Time: 4197500 
4197500: system.cpu.dcache: Creating miss packet
4198000: system.cpu.icache: Creating miss packet
4201000: system.cpu.dcache: Intial Forward Time: 4202000 Request Time: 4202000 
4201000: global: Deducting a bin
4201000: global: Bin Chosen: 4
4201000: global: Bins Left: 18
4201000: system.cpu.dcache: MITTS Forward Time: 4202000 Request Time: 4202000 
4202000: system.cpu.dcache: Creating miss packet
4207000: system.cpu.dcache: Intial Forward Time: 4208000 Request Time: 4208000 
4207000: global: Deducting a bin
4207000: global: Bin Chosen: 4
4207000: global: Bins Left: 17
4207000: system.cpu.dcache: MITTS Forward Time: 4208000 Request Time: 4208000 
4208000: system.l2: Creating miss packet
4208500: system.l2: Creating miss packet
4208500: system.cpu.icache: Creating miss packet
4209000: system.l2: Creating miss packet
4212500: system.l2: Creating miss packet
4219000: system.l2: Creating miss packet
4274500: system.cpu.icache: Creating miss packet
4285000: system.l2: Creating miss packet
4347000: system.cpu.icache: Creating miss packet
4347000: system.cpu.icache: Creating miss packet
4357500: system.l2: Creating miss packet
4420000: system.cpu.icache: Creating miss packet
4430500: system.l2: Creating miss packet
4494000: system.cpu.icache: Creating miss packet
4536000: system.cpu.icache: Creating miss packet
4537000: system.cpu.dcache: Intial Forward Time: 4538000 Request Time: 4538000 
4537000: global: Deducting a bin
4537000: global: Bin Chosen: 4
4537000: global: Bins Left: 16
4537000: system.cpu.dcache: MITTS Forward Time: 4538000 Request Time: 4538000 
4538000: system.cpu.dcache: Creating miss packet
4538000: system.cpu.dcache: Intial Forward Time: 4539000 Request Time: 4539000 
4538000: global: Deducting a bin
4538000: global: Bin Chosen: 4
4538000: global: Bins Left: 15
4538000: system.cpu.dcache: MITTS Forward Time: 4539000 Request Time: 4539000 
4538000: system.cpu.dcache: Intial Forward Time: 4539000 Request Time: 4539000 
4538000: global: Deducting a bin
4538000: global: Bin Chosen: 0
4538000: global: Bins Left: 3
4538000: system.cpu.dcache: MITTS Forward Time: 4539000 Request Time: 4539000 
4539000: system.cpu.dcache: Creating miss packet
4546500: system.l2: Creating miss packet
4548500: system.l2: Creating miss packet
4549500: system.l2: Creating miss packet
4550000: system.l2: Creating miss packet
4609000: system.cpu.icache: Creating miss packet
4609000: system.cpu.icache: Creating miss packet
4610000: system.cpu.dcache: Intial Forward Time: 4611000 Request Time: 4611000 
4610000: global: Deducting a bin
4610000: global: Bin Chosen: 4
4610000: global: Bins Left: 14
4610000: system.cpu.dcache: MITTS Forward Time: 4611000 Request Time: 4611000 
4612500: system.cpu.dcache: Intial Forward Time: 4613500 Request Time: 4613500 
4612500: global: Deducting a bin
4612500: global: Bin Chosen: 4
4612500: global: Bins Left: 13
4612500: system.cpu.dcache: MITTS Forward Time: 4613500 Request Time: 4613500 
4612500: system.cpu.dcache: Intial Forward Time: 4613500 Request Time: 4613500 
4612500: global: Deducting a bin
4612500: global: Bin Chosen: 0
4612500: global: Bins Left: 2
4612500: system.cpu.dcache: MITTS Forward Time: 4613500 Request Time: 4613500 
4613500: system.cpu.dcache: Creating miss packet
4614000: system.cpu.icache: Creating miss packet
4614000: system.cpu.dcache: Intial Forward Time: 4615000 Request Time: 4615000 
4614000: global: Deducting a bin
4614000: global: Bin Chosen: 4
4614000: global: Bins Left: 12
4614000: system.cpu.dcache: MITTS Forward Time: 4615000 Request Time: 4615000 
4614000: system.cpu.dcache: Intial Forward Time: 4615000 Request Time: 4615000 
4614000: global: Deducting a bin
4614000: global: Bin Chosen: 0
4614000: global: Bins Left: 1
4614000: system.cpu.dcache: MITTS Forward Time: 4615000 Request Time: 4615000 
4619500: system.l2: Creating miss packet
4624500: system.l2: Creating miss packet
4686500: system.cpu.icache: Creating miss packet
4688000: system.cpu.dcache: Intial Forward Time: 4689000 Request Time: 4689000 
4688000: global: Deducting a bin
4688000: global: Bin Chosen: 4
4688000: global: Bins Left: 11
4688000: system.cpu.dcache: MITTS Forward Time: 4689000 Request Time: 4689000 
4689000: system.cpu.dcache: Creating miss packet
4697000: system.l2: Creating miss packet
4699500: system.l2: Creating miss packet
4763000: system.cpu.icache: Creating miss packet
4764000: system.cpu.dcache: Intial Forward Time: 4765000 Request Time: 4765000 
4764000: global: Deducting a bin
4764000: global: Bin Chosen: 4
4764000: global: Bins Left: 10
4764000: system.cpu.dcache: MITTS Forward Time: 4765000 Request Time: 4765000 
4765000: system.cpu.dcache: Creating miss packet
4765500: system.cpu.dcache: Intial Forward Time: 4766500 Request Time: 4766500 
4765500: global: Deducting a bin
4765500: global: Bin Chosen: 4
4765500: global: Bins Left: 9
4765500: system.cpu.dcache: MITTS Forward Time: 4766500 Request Time: 4766500 
4766500: system.cpu.dcache: Creating miss packet
4766500: system.cpu.dcache: Intial Forward Time: 4767500 Request Time: 4767500 
4766500: global: Deducting a bin
4766500: global: Bin Chosen: 4
4766500: global: Bins Left: 8
4766500: system.cpu.dcache: MITTS Forward Time: 4767500 Request Time: 4767500 
4771500: system.cpu.dcache: Intial Forward Time: 4772500 Request Time: 4772500 
4771500: global: Deducting a bin
4771500: global: Bin Chosen: 4
4771500: global: Bins Left: 7
4771500: system.cpu.dcache: MITTS Forward Time: 4772500 Request Time: 4772500 
4772500: system.cpu.dcache: Intial Forward Time: 4773500 Request Time: 4773500 
4772500: global: Deducting a bin
4772500: global: Bin Chosen: 4
4772500: global: Bins Left: 6
4772500: system.cpu.dcache: MITTS Forward Time: 4773500 Request Time: 4773500 
4773500: system.l2: Creating miss packet
4775500: system.l2: Creating miss packet
4777000: system.l2: Creating miss packet
4777000: system.l2: Creating miss packet
4836500: system.cpu.icache: Creating miss packet
4845500: system.cpu.icache: Creating miss packet
4847000: system.l2: Creating miss packet
4861000: system.cpu.icache: Creating miss packet
4871500: system.l2: Creating miss packet
4949500: system.cpu.icache: Creating miss packet
4949500: system.cpu.dcache: Intial Forward Time: 4950500 Request Time: 4950500 
4949500: global: Deducting a bin
4949500: global: Bin Chosen: 4
4949500: global: Bins Left: 5
4949500: system.cpu.dcache: MITTS Forward Time: 4950500 Request Time: 4950500 
4950500: system.cpu.dcache: Creating miss packet
4960000: system.l2: Creating miss packet
4961000: system.l2: Creating miss packet
4961000: system.l2: Creating miss packet
5032000: system.cpu.icache: Creating miss packet
5042500: system.l2: Creating miss packet
5105000: system.cpu.icache: Creating miss packet
5108000: system.cpu.dcache: Intial Forward Time: 5109000 Request Time: 5109000 
5108000: global: Deducting a bin
5108000: global: Bin Chosen: 4
5108000: global: Bins Left: 4
5108000: system.cpu.dcache: MITTS Forward Time: 5109000 Request Time: 5109000 
5108000: system.cpu.dcache: Intial Forward Time: 5109000 Request Time: 5109000 
5108000: global: Deducting a bin
5108000: global: Bin Chosen: 0
5108000: global: Bins Left: 0
5108000: system.cpu.dcache: MITTS Forward Time: 5109000 Request Time: 5109000 
5108000: system.cpu.dcache: Intial Forward Time: 5109000 Request Time: 5109000 
5108000: global: Deducting a bin
5108000: global: Bin Chosen: 0
5108000: global: Blocking request
5108000: global: Bins Left: 0
5108000: global: List size is 0
5108000: global: Here
5108000: global: Latency 2000
5108000: system.cpu.dcache: MITTS Forward Time: 5111000 Request Time: 5109000 
5108000: system.cpu.dcache: Intial Forward Time: 5109000 Request Time: 5109000 
5108000: global: Deducting a bin
5108000: global: Bin Chosen: 0
5108000: global: Blocking request
5108000: global: Bins Left: 0
5108000: global: List size is 1
5108000: global: Req Time 5108000, Latency 2000
5108000: global: There
5108000: global: 1
5108000: global: 2
5108000: global: Latency 2000
5108000: system.cpu.dcache: MITTS Forward Time: 5111000 Request Time: 5109000 
5108500: system.cpu.dcache: Intial Forward Time: 5109500 Request Time: 5109500 
5108500: global: Deducting a bin
5108500: global: Bin Chosen: 4
5108500: global: Bins Left: 3
5108500: system.cpu.dcache: MITTS Forward Time: 5109500 Request Time: 5109500 
5109000: system.cpu.dcache: Creating miss packet
5109500: system.cpu.dcache: Creating miss packet
5109500: system.cpu.dcache: Creating miss packet
5109500: system.cpu.dcache: Intial Forward Time: 5110500 Request Time: 5110500 
5109500: global: Deducting a bin
5109500: global: Bin Chosen: 4
5109500: global: Bins Left: 2
5109500: system.cpu.dcache: MITTS Forward Time: 5110500 Request Time: 5110500 
5110000: system.cpu.dcache: Intial Forward Time: 5111000 Request Time: 5111000 
5110000: global: Deducting a bin
5110000: global: Bin Chosen: 4
5110000: global: Bins Left: 24
5110000: system.cpu.dcache: MITTS Forward Time: 5111000 Request Time: 5111000 
5110000: system.cpu.dcache: Intial Forward Time: 5111000 Request Time: 5111000 
5110000: global: Deducting a bin
5110000: global: Bin Chosen: 0
5110000: global: Bins Left: 2
5110000: system.cpu.dcache: MITTS Forward Time: 5111000 Request Time: 5111000 
5110500: system.cpu.dcache: Creating miss packet
5115500: system.l2: Creating miss packet
5119500: system.l2: Creating miss packet
5120000: system.l2: Creating miss packet
5121000: system.l2: Creating miss packet
5121001: system.l2: Creating miss packet
5122000: system.l2: Creating miss packet
5178500: system.cpu.icache: Creating miss packet
5179500: system.cpu.dcache: Intial Forward Time: 5180500 Request Time: 5180500 
5179500: global: Deducting a bin
5179500: global: Bin Chosen: 4
5179500: global: Bins Left: 23
5179500: system.cpu.dcache: MITTS Forward Time: 5180500 Request Time: 5180500 
5181000: system.cpu.icache: Creating miss packet
5185000: system.cpu.icache: Creating miss packet
5189000: system.l2: Creating miss packet
5191500: system.l2: Creating miss packet
5195500: system.l2: Creating miss packet
5198000: system.cpu.dcache: Intial Forward Time: 5199000 Request Time: 5199000 
5198000: global: Deducting a bin
5198000: global: Bin Chosen: 4
5198000: global: Bins Left: 22
5198000: system.cpu.dcache: MITTS Forward Time: 5199000 Request Time: 5199000 
5199000: system.cpu.dcache: Creating miss packet
5200000: system.cpu.dcache: Intial Forward Time: 5201000 Request Time: 5201000 
5200000: global: Deducting a bin
5200000: global: Bin Chosen: 4
5200000: global: Bins Left: 21
5200000: system.cpu.dcache: MITTS Forward Time: 5201000 Request Time: 5201000 
5200000: system.cpu.dcache: Intial Forward Time: 5201000 Request Time: 5201000 
5200000: global: Deducting a bin
5200000: global: Bin Chosen: 0
5200000: global: Bins Left: 1
5200000: system.cpu.dcache: MITTS Forward Time: 5201000 Request Time: 5201000 
5201000: system.cpu.dcache: Creating miss packet
5201001: system.cpu.dcache: Creating miss packet
5201500: system.cpu.dcache: Creating miss packet
5209500: system.l2: Creating miss packet
5211500: system.l2: Creating miss packet
5212000: system.l2: Creating miss packet
5213000: system.l2: Creating miss packet
5292500: system.cpu.icache: Creating miss packet
5303000: system.l2: Creating miss packet
5365500: system.cpu.icache: Creating miss packet
5366500: system.cpu.dcache: Intial Forward Time: 5367500 Request Time: 5367500 
5366500: global: Deducting a bin
5366500: global: Bin Chosen: 4
5366500: global: Bins Left: 20
5366500: system.cpu.dcache: MITTS Forward Time: 5367500 Request Time: 5367500 
5366500: system.cpu.dcache: Intial Forward Time: 5367500 Request Time: 5367500 
5366500: global: Deducting a bin
5366500: global: Bin Chosen: 0
5366500: global: Bins Left: 0
5366500: system.cpu.dcache: MITTS Forward Time: 5367500 Request Time: 5367500 
5367500: system.cpu.dcache: Creating miss packet
5372500: system.cpu.icache: Creating miss packet
5376000: system.l2: Creating miss packet
5383000: system.l2: Creating miss packet
5437500: system.cpu.dcache: Intial Forward Time: 5438500 Request Time: 5438500 
5437500: global: Deducting a bin
5437500: global: Bin Chosen: 4
5437500: global: Bins Left: 19
5437500: system.cpu.dcache: MITTS Forward Time: 5438500 Request Time: 5438500 
5438000: system.cpu.dcache: Intial Forward Time: 5439000 Request Time: 5439000 
5438000: global: Deducting a bin
5438000: global: Bin Chosen: 4
5438000: global: Bins Left: 18
5438000: system.cpu.dcache: MITTS Forward Time: 5439000 Request Time: 5439000 
5438000: system.cpu.dcache: Intial Forward Time: 5439000 Request Time: 5439000 
5438000: global: Deducting a bin
5438000: global: Bin Chosen: 0
5438000: global: Blocking request
5438000: global: Bins Left: 0
5438000: global: List size is 0
5438000: global: Here
5438000: global: Latency 2000
5438000: system.cpu.dcache: MITTS Forward Time: 5441000 Request Time: 5439000 
5438500: system.cpu.dcache: Creating miss packet
5445000: system.cpu.icache: Creating miss packet
5449000: system.l2: Creating miss packet
5455500: system.l2: Creating miss packet
5519000: system.cpu.icache: Creating miss packet
5529500: system.l2: Creating miss packet
5592000: system.cpu.icache: Creating miss packet
5596500: system.cpu.icache: Creating miss packet
5602500: system.l2: Creating miss packet
5607000: system.l2: Creating miss packet
5669500: system.cpu.icache: Creating miss packet
5671000: system.cpu.dcache: Intial Forward Time: 5672000 Request Time: 5672000 
5671000: global: Deducting a bin
5671000: global: Bin Chosen: 4
5671000: global: Bins Left: 24
5671000: system.cpu.dcache: MITTS Forward Time: 5672000 Request Time: 5672000 
5672000: system.cpu.dcache: Creating miss packet
5680000: system.l2: Creating miss packet
5682500: system.l2: Creating miss packet
5770000: system.cpu.icache: Creating miss packet
5775500: system.cpu.icache: Creating miss packet
5776000: system.cpu.dcache: Intial Forward Time: 5777000 Request Time: 5777000 
5776000: global: Deducting a bin
5776000: global: Bin Chosen: 4
5776000: global: Bins Left: 23
5776000: system.cpu.dcache: MITTS Forward Time: 5777000 Request Time: 5777000 
5777000: system.cpu.dcache: Creating miss packet
5780500: system.l2: Creating miss packet
5786000: system.l2: Creating miss packet
5843500: system.cpu.icache: Creating miss packet
5854000: system.l2: Creating miss packet
5916500: system.cpu.icache: Creating miss packet
5917500: system.cpu.icache: Creating miss packet
5927000: system.l2: Creating miss packet
5928000: system.l2: Creating miss packet
5928000: system.l2: Creating miss packet
6004500: system.cpu.icache: Creating miss packet
6006000: system.cpu.dcache: Intial Forward Time: 6007000 Request Time: 6007000 
6006000: global: Deducting a bin
6006000: global: Bin Chosen: 4
6006000: global: Bins Left: 22
6006000: system.cpu.dcache: MITTS Forward Time: 6007000 Request Time: 6007000 
6007000: system.cpu.dcache: Creating miss packet
6007000: system.cpu.dcache: Intial Forward Time: 6008000 Request Time: 6008000 
6007000: global: Deducting a bin
6007000: global: Bin Chosen: 4
6007000: global: Bins Left: 21
6007000: system.cpu.dcache: MITTS Forward Time: 6008000 Request Time: 6008000 
6007000: system.cpu.dcache: Intial Forward Time: 6008000 Request Time: 6008000 
6007000: global: Deducting a bin
6007000: global: Bin Chosen: 0
6007000: global: Bins Left: 3
6007000: system.cpu.dcache: MITTS Forward Time: 6008000 Request Time: 6008000 
6007000: system.cpu.dcache: Intial Forward Time: 6008000 Request Time: 6008000 
6007000: global: Deducting a bin
6007000: global: Bin Chosen: 0
6007000: global: Bins Left: 2
6007000: system.cpu.dcache: MITTS Forward Time: 6008000 Request Time: 6008000 
6008000: system.cpu.dcache: Creating miss packet
6008500: system.cpu.dcache: Intial Forward Time: 6009500 Request Time: 6009500 
6008500: global: Deducting a bin
6008500: global: Bin Chosen: 4
6008500: global: Bins Left: 20
6008500: system.cpu.dcache: MITTS Forward Time: 6009500 Request Time: 6009500 
6015000: system.l2: Creating miss packet
6017500: system.l2: Creating miss packet
6018500: system.l2: Creating miss packet
6019000: system.l2: Creating miss packet
6077000: system.cpu.icache: Creating miss packet
6084500: system.cpu.dcache: Intial Forward Time: 6085500 Request Time: 6085500 
6084500: global: Deducting a bin
6084500: global: Bin Chosen: 4
6084500: global: Bins Left: 19
6084500: system.cpu.dcache: MITTS Forward Time: 6085500 Request Time: 6085500 
6085500: system.cpu.dcache: Creating miss packet
6086500: system.cpu.dcache: Intial Forward Time: 6087500 Request Time: 6087500 
6086500: global: Deducting a bin
6086500: global: Bin Chosen: 4
6086500: global: Bins Left: 18
6086500: system.cpu.dcache: MITTS Forward Time: 6087500 Request Time: 6087500 
6087500: system.l2: Creating miss packet
6096000: system.l2: Creating miss packet
6150000: system.cpu.icache: Creating miss packet
6160500: system.l2: Creating miss packet
6223000: system.cpu.icache: Creating miss packet
6227000: system.cpu.dcache: Intial Forward Time: 6228000 Request Time: 6228000 
6227000: global: Deducting a bin
6227000: global: Bin Chosen: 4
6227000: global: Bins Left: 17
6227000: system.cpu.dcache: MITTS Forward Time: 6228000 Request Time: 6228000 
6228000: system.cpu.dcache: Creating miss packet
6233500: system.l2: Creating miss packet
6238500: system.l2: Creating miss packet
6296000: system.cpu.icache: Creating miss packet
6301500: system.cpu.icache: Creating miss packet
6306000: system.cpu.icache: Creating miss packet
6306500: system.l2: Creating miss packet
6312000: system.l2: Creating miss packet
6316500: system.l2: Creating miss packet
6379500: system.cpu.icache: Creating miss packet
6381000: system.cpu.icache: Creating miss packet
6390000: system.l2: Creating miss packet
6391500: system.l2: Creating miss packet
6468500: system.cpu.icache: Creating miss packet
6469000: system.cpu.dcache: Intial Forward Time: 6470000 Request Time: 6470000 
6469000: global: Deducting a bin
6469000: global: Bin Chosen: 4
6469000: global: Bins Left: 16
6469000: system.cpu.dcache: MITTS Forward Time: 6470000 Request Time: 6470000 
6470000: system.cpu.dcache: Creating miss packet
6479000: system.l2: Creating miss packet
6480500: system.l2: Creating miss packet
6541000: system.cpu.icache: Creating miss packet
6542500: system.cpu.icache: Creating miss packet
6547000: system.cpu.icache: Creating miss packet
6550500: system.cpu.icache: Creating miss packet
6551500: system.l2: Creating miss packet
6553000: system.l2: Creating miss packet
6553000: system.l2: Creating miss packet
6557500: system.l2: Creating miss packet
6561000: system.l2: Creating miss packet
6659000: system.cpu.icache: Creating miss packet
6669500: system.l2: Creating miss packet
6689000: system.cpu.dcache: Intial Forward Time: 6690000 Request Time: 6690000 
6689000: global: Deducting a bin
6689000: global: Bin Chosen: 4
6689000: global: Bins Left: 15
6689000: system.cpu.dcache: MITTS Forward Time: 6690000 Request Time: 6690000 
6689000: system.cpu.dcache: Intial Forward Time: 6690000 Request Time: 6690000 
6689000: global: Deducting a bin
6689000: global: Bin Chosen: 0
6689000: global: Bins Left: 1
6689000: system.cpu.dcache: MITTS Forward Time: 6690000 Request Time: 6690000 
6690000: system.cpu.dcache: Creating miss packet
6690000: system.cpu.dcache: Intial Forward Time: 6691000 Request Time: 6691000 
6690000: global: Deducting a bin
6690000: global: Bin Chosen: 4
6690000: global: Bins Left: 14
6690000: system.cpu.dcache: MITTS Forward Time: 6691000 Request Time: 6691000 
6690000: system.cpu.dcache: Intial Forward Time: 6691000 Request Time: 6691000 
6690000: global: Deducting a bin
6690000: global: Bin Chosen: 0
6690000: global: Bins Left: 0
6690000: system.cpu.dcache: MITTS Forward Time: 6691000 Request Time: 6691000 
6690500: system.cpu.dcache: Intial Forward Time: 6691500 Request Time: 6691500 
6690500: global: Deducting a bin
6690500: global: Bin Chosen: 4
6690500: global: Bins Left: 13
6690500: system.cpu.dcache: MITTS Forward Time: 6691500 Request Time: 6691500 
6690500: system.cpu.dcache: Intial Forward Time: 6691500 Request Time: 6691500 
6690500: global: Deducting a bin
6690500: global: Bin Chosen: 0
6690500: global: Blocking request
6690500: global: Bins Left: 0
6690500: global: List size is 0
6690500: global: Here
6690500: global: Latency 4500
6690500: system.cpu.dcache: MITTS Forward Time: 6696000 Request Time: 6691500 
6691000: system.cpu.dcache: Intial Forward Time: 6692000 Request Time: 6692000 
6691000: global: Deducting a bin
6691000: global: Bin Chosen: 4
6691000: global: Bins Left: 12
6691000: system.cpu.dcache: MITTS Forward Time: 6692000 Request Time: 6692000 
6691000: system.cpu.dcache: Intial Forward Time: 6692000 Request Time: 6692000 
6691000: global: Deducting a bin
6691000: global: Bin Chosen: 0
6691000: global: Blocking request
6691000: global: Bins Left: 0
6691000: global: List size is 1
6691000: global: Req Time 6690500, Latency 4500
6691000: global: There
6691000: global: 1
6691000: global: 2
6691000: global: Latency 5000
6691000: system.cpu.dcache: MITTS Forward Time: 6697000 Request Time: 6692000 
6691500: system.cpu.dcache: Intial Forward Time: 6692500 Request Time: 6692500 
6691500: global: Deducting a bin
6691500: global: Bin Chosen: 4
6691500: global: Bins Left: 11
6691500: system.cpu.dcache: MITTS Forward Time: 6692500 Request Time: 6692500 
6691500: system.cpu.dcache: Intial Forward Time: 6692500 Request Time: 6692500 
6691500: global: Deducting a bin
6691500: global: Bin Chosen: 0
6691500: global: Blocking request
6691500: global: Bins Left: 0
6691500: global: List size is 2
6691500: global: Req Time 6690500, Latency 4500
6691500: global: Req Time 6691000, Latency 5000
6691500: global: There
6691500: global: 1
6691500: global: 2
6691500: global: Latency 5500
6691500: system.cpu.dcache: MITTS Forward Time: 6698000 Request Time: 6692500 
6692000: system.cpu.dcache: Intial Forward Time: 6693000 Request Time: 6693000 
6692000: global: Deducting a bin
6692000: global: Bin Chosen: 4
6692000: global: Bins Left: 10
6692000: system.cpu.dcache: MITTS Forward Time: 6693000 Request Time: 6693000 
6692000: system.cpu.dcache: Intial Forward Time: 6693000 Request Time: 6693000 
6692000: global: Deducting a bin
6692000: global: Bin Chosen: 0
6692000: global: Blocking request
6692000: global: Bins Left: 0
6692000: global: List size is 3
6692000: global: Req Time 6690500, Latency 4500
6692000: global: Req Time 6691000, Latency 5000
6692000: global: Req Time 6691500, Latency 5500
6692000: global: There
6692000: global: 1
6692000: global: 2
6692000: global: Latency 6000
6692000: system.cpu.dcache: MITTS Forward Time: 6699000 Request Time: 6693000 
6692500: system.cpu.dcache: Intial Forward Time: 6693500 Request Time: 6693500 
6692500: global: Deducting a bin
6692500: global: Bin Chosen: 4
6692500: global: Bins Left: 9
6692500: system.cpu.dcache: MITTS Forward Time: 6693500 Request Time: 6693500 
6692500: system.cpu.dcache: Intial Forward Time: 6693500 Request Time: 6693500 
6692500: global: Deducting a bin
6692500: global: Bin Chosen: 0
6692500: global: Blocking request
6692500: global: Bins Left: 0
6692500: global: List size is 4
6692500: global: Req Time 6690500, Latency 4500
6692500: global: Req Time 6691000, Latency 5000
6692500: global: Req Time 6691500, Latency 5500
6692500: global: Req Time 6692000, Latency 6000
6692500: global: There
6692500: global: 1
6692500: global: 2
6692500: global: Latency 6500
6692500: system.cpu.dcache: MITTS Forward Time: 6700000 Request Time: 6693500 
6693000: system.cpu.dcache: Intial Forward Time: 6694000 Request Time: 6694000 
6693000: global: Deducting a bin
6693000: global: Bin Chosen: 4
6693000: global: Bins Left: 8
6693000: system.cpu.dcache: MITTS Forward Time: 6694000 Request Time: 6694000 
6693000: system.cpu.dcache: Intial Forward Time: 6694000 Request Time: 6694000 
6693000: global: Deducting a bin
6693000: global: Bin Chosen: 0
6693000: global: Blocking request
6693000: global: Bins Left: 0
6693000: global: List size is 5
6693000: global: Req Time 6690500, Latency 4500
6693000: global: Req Time 6691000, Latency 5000
6693000: global: Req Time 6691500, Latency 5500
6693000: global: Req Time 6692000, Latency 6000
6693000: global: Req Time 6692500, Latency 6500
6693000: global: There
6693000: global: 1
6693000: global: 3
6693000: global: Latency 7000
6693000: system.cpu.dcache: MITTS Forward Time: 6701000 Request Time: 6694000 
6693500: system.cpu.dcache: Intial Forward Time: 6694500 Request Time: 6694500 
6693500: global: Deducting a bin
6693500: global: Bin Chosen: 4
6693500: global: Bins Left: 7
6693500: system.cpu.dcache: MITTS Forward Time: 6694500 Request Time: 6694500 
6693500: system.cpu.dcache: Intial Forward Time: 6694500 Request Time: 6694500 
6693500: global: Deducting a bin
6693500: global: Bin Chosen: 0
6693500: global: Blocking request
6693500: global: Bins Left: 0
6693500: global: List size is 6
6693500: global: Req Time 6690500, Latency 4500
6693500: global: Req Time 6691000, Latency 5000
6693500: global: Req Time 6691500, Latency 5500
6693500: global: Req Time 6692000, Latency 6000
6693500: global: Req Time 6692500, Latency 6500
6693500: global: Req Time 6693000, Latency 7000
6693500: global: There
6693500: global: 1
6693500: global: 2
6693500: global: Latency 7500
6693500: system.cpu.dcache: MITTS Forward Time: 6702000 Request Time: 6694500 
6694000: system.cpu.dcache: Intial Forward Time: 6695000 Request Time: 6695000 
6694000: global: Deducting a bin
6694000: global: Bin Chosen: 4
6694000: global: Bins Left: 6
6694000: system.cpu.dcache: MITTS Forward Time: 6695000 Request Time: 6695000 
6694000: system.cpu.dcache: Intial Forward Time: 6695000 Request Time: 6695000 
6694000: global: Deducting a bin
6694000: global: Bin Chosen: 0
6694000: global: Blocking request
6694000: global: Bins Left: 0
6694000: global: List size is 7
6694000: global: Req Time 6690500, Latency 4500
6694000: global: Req Time 6691000, Latency 5000
6694000: global: Req Time 6691500, Latency 5500
6694000: global: Req Time 6692000, Latency 6000
6694000: global: Req Time 6692500, Latency 6500
6694000: global: Req Time 6693000, Latency 7000
6694000: global: Req Time 6693500, Latency 7500
6694000: global: There
6694000: global: 1
6694000: global: 2
6694000: global: Latency 8000
6694000: system.cpu.dcache: MITTS Forward Time: 6703000 Request Time: 6695000 
6694500: system.cpu.dcache: Creating miss packet
6694500: system.cpu.dcache: Intial Forward Time: 6695500 Request Time: 6695500 
6694500: global: Deducting a bin
6694500: global: Bin Chosen: 4
6694500: global: Bins Left: 5
6694500: system.cpu.dcache: MITTS Forward Time: 6695500 Request Time: 6695500 
6694500: system.cpu.dcache: Intial Forward Time: 6695500 Request Time: 6695500 
6694500: global: Deducting a bin
6694500: global: Bin Chosen: 0
6694500: global: Blocking request
6694500: global: Bins Left: 0
6694500: global: List size is 8
6694500: global: Req Time 6690500, Latency 4500
6694500: global: Req Time 6691000, Latency 5000
6694500: global: Req Time 6691500, Latency 5500
6694500: global: Req Time 6692000, Latency 6000
6694500: global: Req Time 6692500, Latency 6500
6694500: global: Req Time 6693000, Latency 7000
6694500: global: Req Time 6693500, Latency 7500
6694500: global: Req Time 6694000, Latency 8000
6694500: global: There
6694500: global: 1
6694500: global: 2
6694500: global: Latency 8500
6694500: system.cpu.dcache: MITTS Forward Time: 6704000 Request Time: 6695500 
6695000: system.cpu.dcache: Intial Forward Time: 6696000 Request Time: 6696000 
6695000: global: Deducting a bin
6695000: global: Bin Chosen: 4
6695000: global: Bins Left: 24
6695000: system.cpu.dcache: MITTS Forward Time: 6696000 Request Time: 6696000 
6695000: system.cpu.dcache: Intial Forward Time: 6696000 Request Time: 6696000 
6695000: global: Deducting a bin
6695000: global: Bin Chosen: 0
6695000: global: Bins Left: 3
6695000: system.cpu.dcache: MITTS Forward Time: 6696000 Request Time: 6696000 
6695500: system.cpu.dcache: Intial Forward Time: 6696500 Request Time: 6696500 
6695500: global: Deducting a bin
6695500: global: Bin Chosen: 4
6695500: global: Bins Left: 23
6695500: system.cpu.dcache: MITTS Forward Time: 6696500 Request Time: 6696500 
6695500: system.cpu.dcache: Intial Forward Time: 6696500 Request Time: 6696500 
6695500: global: Deducting a bin
6695500: global: Bin Chosen: 0
6695500: global: Bins Left: 2
6695500: system.cpu.dcache: MITTS Forward Time: 6696500 Request Time: 6696500 
6696000: system.cpu.dcache: Intial Forward Time: 6697000 Request Time: 6697000 
6696000: global: Deducting a bin
6696000: global: Bin Chosen: 4
6696000: global: Bins Left: 24
6696000: system.cpu.dcache: MITTS Forward Time: 6697000 Request Time: 6697000 
6696000: system.cpu.dcache: Intial Forward Time: 6697000 Request Time: 6697000 
6696000: global: Deducting a bin
6696000: global: Bin Chosen: 0
6696000: global: Bins Left: 2
6696000: system.cpu.dcache: MITTS Forward Time: 6697000 Request Time: 6697000 
6696500: system.cpu.dcache: Intial Forward Time: 6697500 Request Time: 6697500 
6696500: global: Deducting a bin
6696500: global: Bin Chosen: 4
6696500: global: Bins Left: 23
6696500: system.cpu.dcache: MITTS Forward Time: 6697500 Request Time: 6697500 
6696500: system.cpu.dcache: Intial Forward Time: 6697500 Request Time: 6697500 
6696500: global: Deducting a bin
6696500: global: Bin Chosen: 0
6696500: global: Bins Left: 1
6696500: system.cpu.dcache: MITTS Forward Time: 6697500 Request Time: 6697500 
6697000: system.cpu.dcache: Intial Forward Time: 6698000 Request Time: 6698000 
6697000: global: Deducting a bin
6697000: global: Bin Chosen: 4
6697000: global: Bins Left: 24
6697000: system.cpu.dcache: MITTS Forward Time: 6698000 Request Time: 6698000 
6697000: system.cpu.dcache: Intial Forward Time: 6698000 Request Time: 6698000 
6697000: global: Deducting a bin
6697000: global: Bin Chosen: 0
6697000: global: Bins Left: 1
6697000: system.cpu.dcache: MITTS Forward Time: 6698000 Request Time: 6698000 
6697500: system.cpu.dcache: Intial Forward Time: 6698500 Request Time: 6698500 
6697500: global: Deducting a bin
6697500: global: Bin Chosen: 4
6697500: global: Bins Left: 23
6697500: system.cpu.dcache: MITTS Forward Time: 6698500 Request Time: 6698500 
6698500: system.cpu.dcache: Creating miss packet
6700500: system.l2: Creating miss packet
6705000: system.l2: Creating miss packet
6709000: system.l2: Creating miss packet
6765500: system.cpu.dcache: Intial Forward Time: 6766500 Request Time: 6766500 
6765500: global: Deducting a bin
6765500: global: Bin Chosen: 4
6765500: global: Bins Left: 24
6765500: system.cpu.dcache: MITTS Forward Time: 6766500 Request Time: 6766500 
6766500: system.cpu.dcache: Intial Forward Time: 6767500 Request Time: 6767500 
6766500: global: Deducting a bin
6766500: global: Bin Chosen: 4
6766500: global: Bins Left: 23
6766500: system.cpu.dcache: MITTS Forward Time: 6767500 Request Time: 6767500 
6767000: system.cpu.dcache: Intial Forward Time: 6768000 Request Time: 6768000 
6767000: global: Deducting a bin
6767000: global: Bin Chosen: 4
6767000: global: Bins Left: 22
6767000: system.cpu.dcache: MITTS Forward Time: 6768000 Request Time: 6768000 
6768000: system.cpu.dcache: Intial Forward Time: 6769000 Request Time: 6769000 
6768000: global: Deducting a bin
6768000: global: Bin Chosen: 4
6768000: global: Bins Left: 21
6768000: system.cpu.dcache: MITTS Forward Time: 6769000 Request Time: 6769000 
6768000: system.cpu.dcache: Intial Forward Time: 6769000 Request Time: 6769000 
6768000: global: Deducting a bin
6768000: global: Bin Chosen: 0
6768000: global: Bins Left: 0
6768000: system.cpu.dcache: MITTS Forward Time: 6769000 Request Time: 6769000 
6769000: system.cpu.dcache: Intial Forward Time: 6770000 Request Time: 6770000 
6769000: global: Deducting a bin
6769000: global: Bin Chosen: 4
6769000: global: Bins Left: 20
6769000: system.cpu.dcache: MITTS Forward Time: 6770000 Request Time: 6770000 
6769000: system.cpu.dcache: Intial Forward Time: 6770000 Request Time: 6770000 
6769000: global: Deducting a bin
6769000: global: Bin Chosen: 0
6769000: global: Blocking request
6769000: global: Bins Left: 0
6769000: global: List size is 0
6769000: global: Here
6769000: global: Latency 1000
6769000: system.cpu.dcache: MITTS Forward Time: 6771000 Request Time: 6770000 
6769500: system.cpu.dcache: Intial Forward Time: 6770500 Request Time: 6770500 
6769500: global: Deducting a bin
6769500: global: Bin Chosen: 4
6769500: global: Bins Left: 19
6769500: system.cpu.dcache: MITTS Forward Time: 6770500 Request Time: 6770500 
6769500: system.cpu.dcache: Intial Forward Time: 6770500 Request Time: 6770500 
6769500: global: Deducting a bin
6769500: global: Bin Chosen: 0
6769500: global: Blocking request
6769500: global: Bins Left: 0
6769500: global: List size is 1
6769500: global: Req Time 6769000, Latency 1000
6769500: global: There
6769500: global: 1
6769500: global: 2
6769500: global: Latency 1500
6769500: system.cpu.dcache: MITTS Forward Time: 6772000 Request Time: 6770500 
6772000: system.cpu.dcache: Intial Forward Time: 6773000 Request Time: 6773000 
6772000: global: Deducting a bin
6772000: global: Bin Chosen: 4
6772000: global: Bins Left: 24
6772000: system.cpu.dcache: MITTS Forward Time: 6773000 Request Time: 6773000 
6772000: system.cpu.dcache: Intial Forward Time: 6773000 Request Time: 6773000 
6772000: global: Deducting a bin
6772000: global: Bin Chosen: 0
6772000: global: Bins Left: 2
6772000: system.cpu.dcache: MITTS Forward Time: 6773000 Request Time: 6773000 
6772500: system.cpu.dcache: Intial Forward Time: 6773500 Request Time: 6773500 
6772500: global: Deducting a bin
6772500: global: Bin Chosen: 4
6772500: global: Bins Left: 23
6772500: system.cpu.dcache: MITTS Forward Time: 6773500 Request Time: 6773500 
6772500: system.cpu.dcache: Intial Forward Time: 6773500 Request Time: 6773500 
6772500: global: Deducting a bin
6772500: global: Bin Chosen: 0
6772500: global: Bins Left: 1
6772500: system.cpu.dcache: MITTS Forward Time: 6773500 Request Time: 6773500 
6773000: system.cpu.dcache: Creating miss packet
6773000: system.cpu.dcache: Intial Forward Time: 6774000 Request Time: 6774000 
6773000: global: Deducting a bin
6773000: global: Bin Chosen: 4
6773000: global: Bins Left: 22
6773000: system.cpu.dcache: MITTS Forward Time: 6774000 Request Time: 6774000 
6773000: system.cpu.dcache: Intial Forward Time: 6774000 Request Time: 6774000 
6773000: global: Deducting a bin
6773000: global: Bin Chosen: 0
6773000: global: Bins Left: 0
6773000: system.cpu.dcache: MITTS Forward Time: 6774000 Request Time: 6774000 
6773500: system.cpu.dcache: Intial Forward Time: 6774500 Request Time: 6774500 
6773500: global: Deducting a bin
6773500: global: Bin Chosen: 4
6773500: global: Bins Left: 21
6773500: system.cpu.dcache: MITTS Forward Time: 6774500 Request Time: 6774500 
6773500: system.cpu.dcache: Intial Forward Time: 6774500 Request Time: 6774500 
6773500: global: Deducting a bin
6773500: global: Bin Chosen: 0
6773500: global: Blocking request
6773500: global: Bins Left: 0
6773500: global: List size is 0
6773500: global: Here
6773500: global: Latency 1500
6773500: system.cpu.dcache: MITTS Forward Time: 6776000 Request Time: 6774500 
6774000: system.cpu.dcache: Intial Forward Time: 6775000 Request Time: 6775000 
6774000: global: Deducting a bin
6774000: global: Bin Chosen: 4
6774000: global: Bins Left: 20
6774000: system.cpu.dcache: MITTS Forward Time: 6775000 Request Time: 6775000 
6774000: system.cpu.dcache: Intial Forward Time: 6775000 Request Time: 6775000 
6774000: global: Deducting a bin
6774000: global: Bin Chosen: 0
6774000: global: Blocking request
6774000: global: Bins Left: 0
6774000: global: List size is 1
6774000: global: Req Time 6773500, Latency 1500
6774000: global: There
6774000: global: 1
6774000: global: 2
6774000: global: Latency 2000
6774000: system.cpu.dcache: MITTS Forward Time: 6777000 Request Time: 6775000 
6774500: system.cpu.dcache: Intial Forward Time: 6775500 Request Time: 6775500 
6774500: global: Deducting a bin
[...]
12574500: system.l2: Creating miss packet
12575500: system.l2: Creating miss packet
12576000: system.l2: Creating miss packet
12674000: system.cpu.icache: Creating miss packet
12684500: system.l2: Creating miss packet
12748500: system.cpu.dcache: Intial Forward Time: 12749500 Request Time: 12749500 
12748500: global: Deducting a bin
12748500: global: Bin Chosen: 4
12748500: global: Bins Left: 18
12748500: system.cpu.dcache: MITTS Forward Time: 12749500 Request Time: 12749500 
12749500: system.cpu.dcache: Creating miss packet
12754500: system.cpu.icache: Creating miss packet
12760000: system.l2: Creating miss packet
12765000: system.l2: Creating miss packet
12823000: system.cpu.icache: Creating miss packet
12833500: system.l2: Creating miss packet
12924000: system.cpu.icache: Creating miss packet
12934500: system.l2: Creating miss packet
12997000: system.cpu.icache: Creating miss packet
13001500: system.cpu.icache: Creating miss packet
13007500: system.l2: Creating miss packet
13012000: system.l2: Creating miss packet
13075000: system.cpu.icache: Creating miss packet
13076000: system.cpu.icache: Creating miss packet
13085500: system.l2: Creating miss packet
13086500: system.l2: Creating miss packet
13087000: system.l2: Creating miss packet
13152500: system.cpu.icache: Creating miss packet
13163000: system.l2: Creating miss packet
13247000: system.cpu.icache: Creating miss packet
13248000: system.cpu.icache: Creating miss packet
13257500: system.l2: Creating miss packet
13258500: system.l2: Creating miss packet
13259000: system.l2: Creating miss packet
13320500: system.cpu.icache: Creating miss packet
13331000: system.l2: Creating miss packet
13393000: system.cpu.icache: Creating miss packet
13400000: system.cpu.icache: Creating miss packet
13403500: system.l2: Creating miss packet
13410500: system.l2: Creating miss packet
13475500: system.cpu.icache: Creating miss packet
13486000: system.l2: Creating miss packet
13576000: system.cpu.icache: Creating miss packet
13586500: system.l2: Creating miss packet
13652500: system.cpu.icache: Creating miss packet
13663000: system.l2: Creating miss packet
13725000: system.cpu.icache: Creating miss packet
13733000: system.cpu.icache: Creating miss packet
13734000: system.cpu.dcache: Intial Forward Time: 13735000 Request Time: 13735000 
13734000: global: Deducting a bin
13734000: global: Bin Chosen: 4
13734000: global: Bins Left: 17
13734000: system.cpu.dcache: MITTS Forward Time: 13735000 Request Time: 13735000 
13735000: system.cpu.dcache: Creating miss packet
13735500: system.l2: Creating miss packet
13743500: system.l2: Creating miss packet
13745500: system.l2: Creating miss packet
13750000: system.cpu.dcache: Intial Forward Time: 13751000 Request Time: 13751000 
13750000: global: Deducting a bin
13750000: global: Bin Chosen: 4
13750000: global: Bins Left: 16
13750000: system.cpu.dcache: MITTS Forward Time: 13751000 Request Time: 13751000 
13751000: system.cpu.dcache: Creating miss packet
13761500: system.l2: Creating miss packet
13768500: system.cpu.dcache: Intial Forward Time: 13769500 Request Time: 13769500 
13768500: global: Deducting a bin
13768500: global: Bin Chosen: 4
13768500: global: Bins Left: 15
13768500: system.cpu.dcache: MITTS Forward Time: 13769500 Request Time: 13769500 
13770500: system.cpu.icache: Creating miss packet
13781000: system.l2: Creating miss packet
13848500: system.cpu.icache: Creating miss packet
13863000: system.cpu.icache: Creating miss packet
13881500: system.cpu.icache: Creating miss packet
13901500: system.cpu.icache: Creating miss packet
13912000: system.l2: Creating miss packet
14003000: system.cpu.icache: Creating miss packet
14013500: system.l2: Creating miss packet
14109500: system.cpu.icache: Creating miss packet
14120000: system.l2: Creating miss packet
14182000: system.cpu.icache: Creating miss packet
14192500: system.l2: Creating miss packet
14255500: system.cpu.icache: Creating miss packet
14266000: system.l2: Creating miss packet
14277500: system.cpu.dcache: Intial Forward Time: 14278500 Request Time: 14278500 
14277500: global: Deducting a bin
14277500: global: Bin Chosen: 4
14277500: global: Bins Left: 14
14277500: system.cpu.dcache: MITTS Forward Time: 14278500 Request Time: 14278500 
14278500: system.cpu.dcache: Creating miss packet
14289000: system.l2: Creating miss packet
14347500: system.cpu.dcache: Intial Forward Time: 14348500 Request Time: 14348500 
14347500: global: Deducting a bin
14347500: global: Bin Chosen: 4
14347500: global: Bins Left: 13
14347500: system.cpu.dcache: MITTS Forward Time: 14348500 Request Time: 14348500 
14369500: system.cpu.dcache: Intial Forward Time: 14370500 Request Time: 14370500 
14369500: global: Deducting a bin
14369500: global: Bin Chosen: 4
14369500: global: Bins Left: 12
14369500: system.cpu.dcache: MITTS Forward Time: 14370500 Request Time: 14370500 
14407000: system.cpu.icache: Creating miss packet
14417500: system.l2: Creating miss packet
14438500: system.cpu.icache: Creating miss packet
14449000: system.l2: Creating miss packet
14529000: system.cpu.icache: Creating miss packet
14539500: system.l2: Creating miss packet
14548000: system.cpu.icache: Creating miss packet
14564500: system.cpu.icache: Creating miss packet
14575000: system.l2: Creating miss packet
14637000: system.cpu.icache: Creating miss packet
14638000: system.cpu.icache: Creating miss packet
14647500: system.l2: Creating miss packet
14648500: system.l2: Creating miss packet
14649000: system.l2: Creating miss packet
14749000: system.cpu.icache: Creating miss packet
14759500: system.l2: Creating miss packet
14850000: system.cpu.icache: Creating miss packet
14860500: system.l2: Creating miss packet
14923000: system.cpu.icache: Creating miss packet
14923000: system.cpu.icache: Creating miss packet
14926500: system.cpu.icache: Creating miss packet
14933500: system.l2: Creating miss packet
14937000: system.l2: Creating miss packet
15001000: system.cpu.icache: Creating miss packet
15011500: system.l2: Creating miss packet
15014500: system.cpu.icache: Creating miss packet
15025000: system.l2: Creating miss packet
15087500: system.cpu.icache: Creating miss packet
15098000: system.l2: Creating miss packet
15161500: system.cpu.icache: Creating miss packet
15172000: system.l2: Creating miss packet
15263000: system.cpu.dcache: Intial Forward Time: 15264000 Request Time: 15264000 
15263000: global: Deducting a bin
15263000: global: Bin Chosen: 4
15263000: global: Bins Left: 11
15263000: system.cpu.dcache: MITTS Forward Time: 15264000 Request Time: 15264000 
15264000: system.cpu.dcache: Creating miss packet
15274500: system.l2: Creating miss packet
Hello world!
15364000: system.cpu.icache: Creating miss packet
15374500: system.l2: Creating miss packet
15453000: system.cpu.dcache: Intial Forward Time: 15454000 Request Time: 15454000 
15453000: global: Deducting a bin
15453000: global: Bin Chosen: 4
15453000: global: Bins Left: 10
15453000: system.cpu.dcache: MITTS Forward Time: 15454000 Request Time: 15454000 
15454000: system.cpu.dcache: Creating miss packet
15485500: system.cpu.dcache: Intial Forward Time: 15486500 Request Time: 15486500 
15485500: global: Deducting a bin
15485500: global: Bin Chosen: 4
15485500: global: Bins Left: 9
15485500: system.cpu.dcache: MITTS Forward Time: 15486500 Request Time: 15486500 
15485500: system.cpu.dcache: Intial Forward Time: 15486500 Request Time: 15486500 
15485500: global: Deducting a bin
15485500: global: Bin Chosen: 0
15485500: global: Bins Left: 1
15485500: system.cpu.dcache: MITTS Forward Time: 15486500 Request Time: 15486500 
15486500: system.cpu.dcache: Creating miss packet
15497000: system.l2: Creating miss packet
15515500: system.cpu.icache: Creating miss packet
15526000: system.l2: Creating miss packet
15562500: system.cpu.icache: Creating miss packet
15580000: system.cpu.icache: Creating miss packet
15586000: system.cpu.icache: Creating miss packet
15596500: system.l2: Creating miss packet
15924000: system.cpu.icache: Creating miss packet
15924000: system.cpu.dcache: Intial Forward Time: 15925000 Request Time: 15925000 
15924000: global: Deducting a bin
15924000: global: Bin Chosen: 4
15924000: global: Bins Left: 8
15924000: system.cpu.dcache: MITTS Forward Time: 15925000 Request Time: 15925000 
15925000: system.cpu.dcache: Creating miss packet
15934500: system.l2: Creating miss packet
15998000: system.cpu.dcache: Intial Forward Time: 15999000 Request Time: 15999000 
15998000: global: Deducting a bin
15998000: global: Bin Chosen: 4
15998000: global: Bins Left: 7
15998000: system.cpu.dcache: MITTS Forward Time: 15999000 Request Time: 15999000 
15998500: system.cpu.dcache: Intial Forward Time: 15999500 Request Time: 15999500 
15998500: global: Deducting a bin
15998500: global: Bin Chosen: 4
15998500: global: Bins Left: 6
15998500: system.cpu.dcache: MITTS Forward Time: 15999500 Request Time: 15999500 
15999000: system.cpu.dcache: Creating miss packet
15999500: system.cpu.dcache: Creating miss packet
15999500: system.cpu.dcache: Creating miss packet
16009500: system.l2: Creating miss packet
16010000: system.l2: Creating miss packet
16011000: system.l2: Creating miss packet
16011500: system.cpu.dcache: Intial Forward Time: 16012500 Request Time: 16012500 
16011500: global: Deducting a bin
16011500: global: Bin Chosen: 4
16011500: global: Bins Left: 5
16011500: system.cpu.dcache: MITTS Forward Time: 16012500 Request Time: 16012500 
16012500: system.cpu.dcache: Creating miss packet
16026000: system.cpu.icache: Creating miss packet
16036500: system.l2: Creating miss packet
16127500: system.cpu.icache: Creating miss packet
16138000: system.l2: Creating miss packet
16141500: system.cpu.icache: Creating miss packet
16152000: system.l2: Creating miss packet
16155500: system.cpu.dcache: Intial Forward Time: 16156500 Request Time: 16156500 
16155500: global: Deducting a bin
16155500: global: Bin Chosen: 4
16155500: global: Bins Left: 4
16155500: system.cpu.dcache: MITTS Forward Time: 16156500 Request Time: 16156500 
16155500: system.cpu.dcache: Intial Forward Time: 16156500 Request Time: 16156500 
16155500: global: Deducting a bin
16155500: global: Bin Chosen: 0
16155500: global: Bins Left: 0
16155500: system.cpu.dcache: MITTS Forward Time: 16156500 Request Time: 16156500 
16156500: system.cpu.dcache: Creating miss packet
16156500: system.cpu.icache: Creating miss packet
16157000: system.cpu.icache: Creating miss packet
16167500: system.l2: Creating miss packet
16170000: system.cpu.dcache: Intial Forward Time: 16171000 Request Time: 16171000 
16170000: global: Deducting a bin
16170000: global: Bin Chosen: 4
16170000: global: Bins Left: 3
16170000: system.cpu.dcache: MITTS Forward Time: 16171000 Request Time: 16171000 
16171000: system.cpu.dcache: Creating miss packet
16181500: system.l2: Creating miss packet
16243500: system.cpu.icache: Creating miss packet
16245000: system.cpu.dcache: Intial Forward Time: 16246000 Request Time: 16246000 
16245000: global: Deducting a bin
16245000: global: Bin Chosen: 4
16245000: global: Bins Left: 2
16245000: system.cpu.dcache: MITTS Forward Time: 16246000 Request Time: 16246000 
16245000: system.cpu.dcache: Intial Forward Time: 16246000 Request Time: 16246000 
16245000: global: Deducting a bin
16245000: global: Bin Chosen: 0
16245000: global: Blocking request
16245000: global: Bins Left: 0
16245000: global: List size is 0
16245000: global: Here
16245000: global: Latency 5000
16245000: system.cpu.dcache: MITTS Forward Time: 16251000 Request Time: 16246000 
16246000: system.cpu.dcache: Creating miss packet
16254000: system.l2: Creating miss packet
16256500: system.l2: Creating miss packet
16273500: system.cpu.icache: Creating miss packet
16284000: system.l2: Creating miss packet
16360000: system.cpu.icache: Creating miss packet
16361500: system.cpu.icache: Creating miss packet
16370500: system.l2: Creating miss packet
16372000: system.l2: Creating miss packet
16372000: system.l2: Creating miss packet
16438500: system.cpu.icache: Creating miss packet
16439000: system.cpu.dcache: Intial Forward Time: 16440000 Request Time: 16440000 
16439000: global: Deducting a bin
16439000: global: Bin Chosen: 4
16439000: global: Bins Left: 24
16439000: system.cpu.dcache: MITTS Forward Time: 16440000 Request Time: 16440000 
16440000: system.cpu.dcache: Creating miss packet
16449000: system.l2: Creating miss packet
16511500: system.cpu.icache: Creating miss packet
16513000: system.cpu.icache: Creating miss packet
16514500: system.cpu.dcache: Intial Forward Time: 16515500 Request Time: 16515500 
16514500: global: Deducting a bin
16514500: global: Bin Chosen: 4
16514500: global: Bins Left: 23
16514500: system.cpu.dcache: MITTS Forward Time: 16515500 Request Time: 16515500 
16514500: system.cpu.dcache: Intial Forward Time: 16515500 Request Time: 16515500 
16514500: global: Deducting a bin
16514500: global: Bin Chosen: 0
16514500: global: Bins Left: 3
16514500: system.cpu.dcache: MITTS Forward Time: 16515500 Request Time: 16515500 
16515500: system.cpu.dcache: Creating miss packet
16515501: system.cpu.dcache: Creating miss packet
16516000: system.cpu.dcache: Creating miss packet
16522000: system.l2: Creating miss packet
16523500: system.l2: Creating miss packet
16526000: system.l2: Creating miss packet
16526500: system.l2: Creating miss packet
16527000: system.l2: Creating miss packet
16590000: system.cpu.icache: Creating miss packet
16590000: system.cpu.icache: Creating miss packet
16596500: system.cpu.dcache: Intial Forward Time: 16597500 Request Time: 16597500 
16596500: global: Deducting a bin
16596500: global: Bin Chosen: 4
16596500: global: Bins Left: 22
16596500: system.cpu.dcache: MITTS Forward Time: 16597500 Request Time: 16597500 
16596500: system.cpu.dcache: Intial Forward Time: 16597500 Request Time: 16597500 
16596500: global: Deducting a bin
16596500: global: Bin Chosen: 0
16596500: global: Bins Left: 2
16596500: system.cpu.dcache: MITTS Forward Time: 16597500 Request Time: 16597500 
16596500: system.cpu.dcache: Intial Forward Time: 16597500 Request Time: 16597500 
16596500: global: Deducting a bin
16596500: global: Bin Chosen: 0
16596500: global: Bins Left: 1
16596500: system.cpu.dcache: MITTS Forward Time: 16597500 Request Time: 16597500 
16597500: system.cpu.dcache: Creating miss packet
16597501: system.cpu.dcache: Creating miss packet
16598000: system.cpu.dcache: Creating miss packet
16600500: system.l2: Creating miss packet
16608000: system.l2: Creating miss packet
16608500: system.l2: Creating miss packet
16609000: system.l2: Creating miss packet
16663500: system.cpu.icache: Creating miss packet
16665500: system.cpu.icache: Creating miss packet
16667000: system.cpu.dcache: Intial Forward Time: 16668000 Request Time: 16668000 
16667000: global: Deducting a bin
16667000: global: Bin Chosen: 4
16667000: global: Bins Left: 21
16667000: system.cpu.dcache: MITTS Forward Time: 16668000 Request Time: 16668000 
16670000: system.cpu.icache: Creating miss packet
16674000: system.l2: Creating miss packet
16676000: system.l2: Creating miss packet
16680500: system.l2: Creating miss packet
16758000: system.cpu.dcache: Intial Forward Time: 16759000 Request Time: 16759000 
16758000: global: Deducting a bin
16758000: global: Bin Chosen: 4
16758000: global: Bins Left: 20
16758000: system.cpu.dcache: MITTS Forward Time: 16759000 Request Time: 16759000 
16758000: system.cpu.dcache: Intial Forward Time: 16759000 Request Time: 16759000 
16758000: global: Deducting a bin
16758000: global: Bin Chosen: 0
16758000: global: Bins Left: 0
16758000: system.cpu.dcache: MITTS Forward Time: 16759000 Request Time: 16759000 
16758000: system.cpu.dcache: Intial Forward Time: 16759000 Request Time: 16759000 
16758000: global: Deducting a bin
16758000: global: Bin Chosen: 0
16758000: global: Blocking request
16758000: global: Bins Left: 0
16758000: global: List size is 0
16758000: global: Here
16758000: global: Latency 2000
16758000: system.cpu.dcache: MITTS Forward Time: 16761000 Request Time: 16759000 
16759000: system.cpu.dcache: Creating miss packet
16759001: system.cpu.dcache: Creating miss packet
16759500: system.cpu.dcache: Creating miss packet
16760500: system.cpu.dcache: Intial Forward Time: 16761500 Request Time: 16761500 
16760500: global: Deducting a bin
16760500: global: Bin Chosen: 4
16760500: global: Bins Left: 24
16760500: system.cpu.dcache: MITTS Forward Time: 16761500 Request Time: 16761500 
16769500: system.l2: Creating miss packet
16770000: system.l2: Creating miss packet
16771000: system.l2: Creating miss packet
16842000: system.cpu.icache: Creating miss packet
16851000: system.cpu.icache: Creating miss packet
16852500: system.l2: Creating miss packet
16861500: system.l2: Creating miss packet
16926500: system.cpu.icache: Creating miss packet
16936000: system.cpu.dcache: Intial Forward Time: 16937000 Request Time: 16937000 
16936000: global: Deducting a bin
16936000: global: Bin Chosen: 4
16936000: global: Bins Left: 23
16936000: system.cpu.dcache: MITTS Forward Time: 16937000 Request Time: 16937000 
16936000: system.cpu.dcache: Intial Forward Time: 16937000 Request Time: 16937000 
16936000: global: Deducting a bin
16936000: global: Bin Chosen: 0
16936000: global: Bins Left: 3
16936000: system.cpu.dcache: MITTS Forward Time: 16937000 Request Time: 16937000 
16936000: system.cpu.dcache: Intial Forward Time: 16937000 Request Time: 16937000 
16936000: global: Deducting a bin
16936000: global: Bin Chosen: 0
16936000: global: Bins Left: 2
16936000: system.cpu.dcache: MITTS Forward Time: 16937000 Request Time: 16937000 
16937000: system.cpu.dcache: Creating miss packet
16937000: system.l2: Creating miss packet
16947500: system.l2: Creating miss packet
16999500: system.cpu.icache: Creating miss packet
17004500: system.cpu.icache: Creating miss packet
17010000: system.l2: Creating miss packet
17015000: system.cpu.icache: Creating miss packet
17025500: system.l2: Creating miss packet
17091500: system.cpu.icache: Creating miss packet
17111500: system.cpu.icache: Creating miss packet
17113500: system.cpu.icache: Creating miss packet
17122000: system.l2: Creating miss packet
17205000: system.cpu.icache: Creating miss packet
17215500: system.l2: Creating miss packet
17277500: system.cpu.icache: Creating miss packet
17288000: system.l2: Creating miss packet
17350000: system.cpu.icache: Creating miss packet
17354000: system.cpu.icache: Creating miss packet
17360000: system.cpu.icache: Creating miss packet
17364500: system.l2: Creating miss packet
17370500: system.l2: Creating miss packet
17461500: system.cpu.icache: Creating miss packet
17466000: system.cpu.icache: Creating miss packet
17471000: system.cpu.icache: Creating miss packet
17472000: system.l2: Creating miss packet
17476500: system.l2: Creating miss packet
17481500: system.l2: Creating miss packet
17558000: system.cpu.icache: Creating miss packet
17568500: system.l2: Creating miss packet
17657000: system.cpu.dcache: Intial Forward Time: 17658000 Request Time: 17658000 
17657000: global: Deducting a bin
17657000: global: Bin Chosen: 4
17657000: global: Bins Left: 22
17657000: system.cpu.dcache: MITTS Forward Time: 17658000 Request Time: 17658000 
17657000: system.cpu.dcache: Intial Forward Time: 17658000 Request Time: 17658000 
17657000: global: Deducting a bin
17657000: global: Bin Chosen: 0
17657000: global: Bins Left: 1
17657000: system.cpu.dcache: MITTS Forward Time: 17658000 Request Time: 17658000 
17658000: system.cpu.dcache: Creating miss packet
17668500: system.l2: Creating miss packet
17675000: system.cpu.dcache: Intial Forward Time: 17676000 Request Time: 17676000 
17675000: global: Deducting a bin
17675000: global: Bin Chosen: 4
17675000: global: Bins Left: 21
17675000: system.cpu.dcache: MITTS Forward Time: 17676000 Request Time: 17676000 
17676000: system.cpu.dcache: Creating miss packet
Exiting @ tick 17742500 because exiting with last active thread context
Simulated exit code not 0! Exit code is 13
