gem5 Simulator System.  http://gem5.org
gem5 is copyrighted software; use the --copyright option for details.

gem5 compiled May  6 2020 16:48:50
gem5 started May 12 2020 23:45:26
gem5 executing on arul-gaming-pc, pid 2040
command line: ./build/ARM/gem5.opt --debug-flags=MITTS ./configs/example/se.py --caches --l2cache -c ./tests/test-progs/hello/bin/arm/linux/hello --cpu-type=DerivO3CPU --MITTS

Global frequency set at 1000000000000 ticks per second
system.cpu.dcache.cpu_side
      0: global: Replenishing Bins
system.cpu.icache.cpu_side
      0: global: Replenishing Bins
system.l2.cpu_side
      0: global: Replenishing Bins
**** REAL SIMULATION ****
      0: system.cpu.icache: handleTimingReqMiss 
      0: system.cpu.icache: Intial Forward Time: 1000 Request Time: 1000 
      0: global: Deducting a bin
      0: global: Bin Chosen: 0
      0: global: Bins Left: 2
      0: system.cpu.icache: MITTS Forward Time: 1000 Request Time: 1000 
   1000: system.cpu.icache: Creating miss packet
   1000: system.l2: handleTimingReqMiss 
   1000: system.l2: Intial Forward Time: 11500 Request Time: 11500 
   1000: system.l2: MITTS Forward Time: 11500 Request Time: 11500 
   1000: system.cpu.icache: handleTimingReqMiss 
   1000: system.cpu.icache: Intial Forward Time: 2000 Request Time: 2000 
   1000: global: Deducting a bin
   1000: global: Bin Chosen: 2
   1000: global: Bins Left: 2
   1000: system.cpu.icache: MITTS Forward Time: 2000 Request Time: 2000 
  11500: system.l2: Creating miss packet
  89500: system.cpu.icache: handleTimingReqMiss 
  89500: system.cpu.icache: Intial Forward Time: 90500 Request Time: 90500 
  89500: global: Deducting a bin
  89500: global: Bin Chosen: 2
  89500: global: Bins Left: 1
  89500: system.cpu.icache: MITTS Forward Time: 90500 Request Time: 90500 
  90500: system.cpu.icache: Creating miss packet
  90500: system.l2: handleTimingReqMiss 
  90500: system.l2: Intial Forward Time: 101000 Request Time: 101000 
  90500: system.l2: MITTS Forward Time: 101000 Request Time: 101000 
  91000: system.cpu.icache: handleTimingReqMiss 
  91000: system.cpu.icache: Intial Forward Time: 92000 Request Time: 92000 
  91000: global: Deducting a bin
  91000: global: Bin Chosen: 2
  91000: global: Bins Left: 0
  91000: system.cpu.icache: MITTS Forward Time: 92000 Request Time: 92000 
  91500: system.cpu.dcache: handleTimingReqMiss 
  91500: system.cpu.dcache: Intial Forward Time: 92500 Request Time: 92500 
  91500: global: Deducting a bin
  91500: global: Bin Chosen: 2
  91500: global: Bins Left: 2
  91500: system.cpu.dcache: MITTS Forward Time: 92500 Request Time: 92500 
  91500: system.cpu.dcache: handleTimingReqMiss 
  91500: system.cpu.dcache: Intial Forward Time: 92500 Request Time: 92500 
  91500: global: Deducting a bin
  91500: global: Bin Chosen: 0
  91500: global: Bins Left: 2
  91500: system.cpu.dcache: MITTS Forward Time: 92500 Request Time: 92500 
  92000: system.cpu.icache: Creating miss packet
  92000: system.l2: handleTimingReqMiss 
  92000: system.l2: Intial Forward Time: 102500 Request Time: 102500 
  92000: system.l2: MITTS Forward Time: 102500 Request Time: 102500 
  92000: system.cpu.dcache: handleTimingReqMiss 
  92000: system.cpu.dcache: Intial Forward Time: 93000 Request Time: 93000 
  92000: global: Deducting a bin
  92000: global: Bin Chosen: 2
  92000: global: Bins Left: 1
  92000: system.cpu.dcache: MITTS Forward Time: 93000 Request Time: 93000 
  92000: system.cpu.dcache: handleTimingReqMiss 
  92000: system.cpu.dcache: Intial Forward Time: 93000 Request Time: 93000 
  92000: global: Deducting a bin
  92000: global: Bin Chosen: 0
  92000: global: Bins Left: 1
  92000: system.cpu.dcache: MITTS Forward Time: 93000 Request Time: 93000 
  92500: system.cpu.dcache: Creating miss packet
  92501: system.cpu.dcache: Creating miss packet
  93000: system.cpu.dcache: Creating miss packet
  93000: system.l2: handleTimingReqMiss 
  93000: system.l2: Intial Forward Time: 103500 Request Time: 103500 
  93000: system.l2: MITTS Forward Time: 103500 Request Time: 103500 
  93001: system.cpu.dcache: Creating miss packet
  93500: system.cpu.dcache: Creating miss packet
  93500: system.l2: handleTimingReqMiss 
  93500: system.l2: Intial Forward Time: 105000 Request Time: 105000 
  93500: system.l2: MITTS Forward Time: 105000 Request Time: 105000 
 101000: system.l2: Creating miss packet
 102500: system.l2: Creating miss packet
 103500: system.l2: Creating miss packet
 104000: system.l2: Creating miss packet
 168000: system.cpu.icache: handleTimingReqMiss 
 168000: system.cpu.icache: Intial Forward Time: 169000 Request Time: 169000 
 168000: global: Deducting a bin
 168000: global: Bin Chosen: 2
 168000: global: Blocking request
 168000: global: Bins Left: 0
 168000: global: List size is 0
 168000: global: Here
 168000: global: Latency 2000
 168000: system.cpu.icache: MITTS Forward Time: 171000 Request Time: 169000 
 170000: system.cpu.dcache: handleTimingReqMiss 
 170000: system.cpu.dcache: Intial Forward Time: 171000 Request Time: 171000 
 170000: global: Deducting a bin
 170000: global: Bin Chosen: 2
 170000: global: Bins Left: 0
 170000: system.cpu.dcache: MITTS Forward Time: 171000 Request Time: 171000 
 171000: system.cpu.dcache: Creating miss packet
 171000: system.l2: handleTimingReqMiss 
 171000: system.l2: Intial Forward Time: 181500 Request Time: 181500 
 171000: system.l2: MITTS Forward Time: 181500 Request Time: 181500 
 171000: system.cpu.icache: Creating miss packet
 171500: system.cpu.icache: Creating miss packet
 171500: system.l2: handleTimingReqMiss 
 171500: system.l2: Intial Forward Time: 182000 Request Time: 182000 
 171500: system.l2: MITTS Forward Time: 182000 Request Time: 182000 
 181500: system.l2: Creating miss packet
 182000: system.l2: Creating miss packet
 183000: system.l2: Creating miss packet
 248000: system.cpu.icache: handleTimingReqMiss 
 248000: system.cpu.icache: Intial Forward Time: 249000 Request Time: 249000 
 248000: global: Deducting a bin
 248000: global: Bin Chosen: 2
 248000: global: Bins Left: 1
 248000: system.cpu.icache: MITTS Forward Time: 249000 Request Time: 249000 
 249000: system.cpu.icache: Creating miss packet
 249000: system.l2: handleTimingReqMiss 
 249000: system.l2: Intial Forward Time: 259500 Request Time: 259500 
 249000: system.l2: MITTS Forward Time: 259500 Request Time: 259500 
 252000: system.cpu.dcache: handleTimingReqMiss 
 252000: system.cpu.dcache: Intial Forward Time: 253000 Request Time: 253000 
 252000: global: Deducting a bin
 252000: global: Bin Chosen: 2
 252000: global: Blocking request
 252000: global: Bins Left: 0
 252000: global: List size is 0
 252000: global: Here
 252000: global: Latency 8000
 252000: system.cpu.dcache: MITTS Forward Time: 261000 Request Time: 253000 
 252000: system.cpu.dcache: handleTimingReqMiss 
 252000: system.cpu.dcache: Intial Forward Time: 253000 Request Time: 253000 
 252000: global: Deducting a bin
 252000: global: Bin Chosen: 0
 252000: global: Bins Left: 0
 252000: system.cpu.dcache: MITTS Forward Time: 253000 Request Time: 253000 
 252000: system.cpu.dcache: handleTimingReqMiss 
 252000: system.cpu.dcache: Intial Forward Time: 253000 Request Time: 253000 
 252000: global: Deducting a bin
 252000: global: Bin Chosen: 0
 252000: global: Blocking request
 252000: global: Bins Left: 0
 252000: global: List size is 1
 252000: global: Req Time 252000, Latency 8000
 252000: global: There
 252000: global: 1
 252000: global: 2
 252000: global: Latency 8000
 252000: system.cpu.dcache: MITTS Forward Time: 261000 Request Time: 253000 
 255000: system.cpu.dcache: handleTimingReqMiss 
 255000: system.cpu.dcache: Intial Forward Time: 256000 Request Time: 256000 
 255000: global: Deducting a bin
 255000: global: Bin Chosen: 2
 255000: global: Blocking request
 255000: global: Bins Left: 0
 255000: global: List size is 2
 255000: global: Req Time 252000, Latency 8000
 255000: global: Req Time 252000, Latency 8000
 255000: global: There
 255000: global: 1
 255000: global: 2
 255000: global: Latency 11000
 255000: system.cpu.dcache: MITTS Forward Time: 267000 Request Time: 256000 
 259500: system.l2: Creating miss packet
 261000: system.cpu.dcache: Creating miss packet
 261000: system.l2: handleTimingReqMiss 
 261000: system.l2: Intial Forward Time: 271500 Request Time: 271500 
 261000: system.l2: MITTS Forward Time: 271500 Request Time: 271500 
 267000: system.cpu.dcache: Creating miss packet
 267000: system.l2: handleTimingReqMiss 
 267000: system.l2: Intial Forward Time: 277500 Request Time: 277500 
 267000: system.l2: MITTS Forward Time: 277500 Request Time: 277500 
 271500: system.l2: Creating miss packet
 277500: system.l2: Creating miss packet
 321500: system.cpu.icache: handleTimingReqMiss 
 321500: system.cpu.icache: Intial Forward Time: 322500 Request Time: 322500 
 321500: global: Deducting a bin
 321500: global: Bin Chosen: 2
 321500: global: Bins Left: 0
 321500: system.cpu.icache: MITTS Forward Time: 322500 Request Time: 322500 
 322500: system.cpu.icache: Creating miss packet
 322500: system.l2: handleTimingReqMiss 
 322500: system.l2: Intial Forward Time: 333000 Request Time: 333000 
 322500: system.l2: MITTS Forward Time: 333000 Request Time: 333000 
 322500: system.cpu.icache: handleTimingReqMiss 
 322500: system.cpu.icache: Intial Forward Time: 323500 Request Time: 323500 
 322500: global: Deducting a bin
 322500: global: Bin Chosen: 2
 322500: global: Blocking request
 322500: global: Bins Left: 0
 322500: global: List size is 0
 322500: global: Here
 322500: global: Latency 7500
 322500: system.cpu.icache: MITTS Forward Time: 331000 Request Time: 323500 
 326500: system.cpu.dcache: handleTimingReqMiss 
 326500: system.cpu.dcache: Intial Forward Time: 327500 Request Time: 327500 
 326500: global: Deducting a bin
 326500: global: Bin Chosen: 2
 326500: global: Bins Left: 0
 326500: system.cpu.dcache: MITTS Forward Time: 327500 Request Time: 327500 
 327000: system.cpu.dcache: handleTimingReqMiss 
 327000: system.cpu.dcache: Intial Forward Time: 328000 Request Time: 328000 
 327000: global: Deducting a bin
 327000: global: Bin Chosen: 2
 327000: global: Blocking request
 327000: global: Bins Left: 0
 327000: global: List size is 0
 327000: global: Here
 327000: global: Latency 3000
 327000: system.cpu.dcache: MITTS Forward Time: 331000 Request Time: 328000 
 327500: system.cpu.dcache: Creating miss packet
 327500: system.l2: handleTimingReqMiss 
 327500: system.l2: Intial Forward Time: 338000 Request Time: 338000 
 327500: system.l2: MITTS Forward Time: 338000 Request Time: 338000 
 331000: system.cpu.dcache: Creating miss packet
 331000: system.l2: handleTimingReqMiss 
 331000: system.l2: Intial Forward Time: 341500 Request Time: 341500 
 331000: system.l2: MITTS Forward Time: 341500 Request Time: 341500 
 331000: system.cpu.icache: Creating miss packet
 331500: system.cpu.icache: Creating miss packet
 331500: system.l2: handleTimingReqMiss 
 331500: system.l2: Intial Forward Time: 342000 Request Time: 342000 
 331500: system.l2: MITTS Forward Time: 342000 Request Time: 342000 
 333000: system.l2: Creating miss packet
 338000: system.l2: Creating miss packet
 341500: system.l2: Creating miss packet
 342000: system.l2: Creating miss packet
 343000: system.l2: Creating miss packet
 418000: system.cpu.icache: handleTimingReqMiss 
 418000: system.cpu.icache: Intial Forward Time: 419000 Request Time: 419000 
 418000: global: Deducting a bin
 418000: global: Bin Chosen: 2
 418000: global: Bins Left: 1
 418000: system.cpu.icache: MITTS Forward Time: 419000 Request Time: 419000 
 419000: system.cpu.icache: Creating miss packet
 419000: system.l2: handleTimingReqMiss 
 419000: system.l2: Intial Forward Time: 429500 Request Time: 429500 
 419000: system.l2: MITTS Forward Time: 429500 Request Time: 429500 
 423000: system.cpu.dcache: handleTimingReqMiss 
 423000: system.cpu.dcache: Intial Forward Time: 424000 Request Time: 424000 
 423000: global: Deducting a bin
 423000: global: Bin Chosen: 2
 423000: global: Bins Left: 1
 423000: system.cpu.dcache: MITTS Forward Time: 424000 Request Time: 424000 
 423000: system.cpu.dcache: handleTimingReqMiss 
 423000: system.cpu.dcache: Intial Forward Time: 424000 Request Time: 424000 
 423000: global: Deducting a bin
 423000: global: Bin Chosen: 0
 423000: global: Bins Left: 2
 423000: system.cpu.dcache: MITTS Forward Time: 424000 Request Time: 424000 
 423000: system.cpu.dcache: handleTimingReqMiss 
 423000: system.cpu.dcache: Intial Forward Time: 424000 Request Time: 424000 
 423000: global: Deducting a bin
 423000: global: Bin Chosen: 0
 423000: global: Bins Left: 1
 423000: system.cpu.dcache: MITTS Forward Time: 424000 Request Time: 424000 
 423000: system.cpu.dcache: handleTimingReqMiss 
 423000: system.cpu.dcache: Intial Forward Time: 424000 Request Time: 424000 
 423000: global: Deducting a bin
 423000: global: Bin Chosen: 0
 423000: global: Bins Left: 0
 423000: system.cpu.dcache: MITTS Forward Time: 424000 Request Time: 424000 
 424000: system.cpu.dcache: Creating miss packet
 424000: system.l2: handleTimingReqMiss 
 424000: system.l2: Intial Forward Time: 434500 Request Time: 434500 
 424000: system.l2: MITTS Forward Time: 434500 Request Time: 434500 
 429500: system.l2: Creating miss packet
 434500: system.l2: Creating miss packet
 491000: system.cpu.icache: handleTimingReqMiss 
 491000: system.cpu.icache: Intial Forward Time: 492000 Request Time: 492000 
 491000: global: Deducting a bin
 491000: global: Bin Chosen: 2
 491000: global: Bins Left: 0
 491000: system.cpu.icache: MITTS Forward Time: 492000 Request Time: 492000 
 492000: system.cpu.icache: Creating miss packet
 492000: system.l2: handleTimingReqMiss 
 492000: system.l2: Intial Forward Time: 502500 Request Time: 502500 
 492000: system.l2: MITTS Forward Time: 502500 Request Time: 502500 
 493000: system.cpu.dcache: handleTimingReqMiss 
 493000: system.cpu.dcache: Intial Forward Time: 494000 Request Time: 494000 
 493000: global: Deducting a bin
 493000: global: Bin Chosen: 2
 493000: global: Bins Left: 0
 493000: system.cpu.dcache: MITTS Forward Time: 494000 Request Time: 494000 
 493000: system.cpu.dcache: handleTimingReqMiss 
 493000: system.cpu.dcache: Intial Forward Time: 494000 Request Time: 494000 
 493000: global: Deducting a bin
 493000: global: Bin Chosen: 0
 493000: global: Blocking request
 493000: global: Bins Left: 0
 493000: global: List size is 0
 493000: global: Here
 493000: global: Latency 7000
 493000: system.cpu.dcache: MITTS Forward Time: 501000 Request Time: 494000 
 493000: system.cpu.dcache: handleTimingReqMiss 
 493000: system.cpu.dcache: Intial Forward Time: 494000 Request Time: 494000 
 493000: global: Deducting a bin
 493000: global: Bin Chosen: 0
 493000: global: Blocking request
 493000: global: Bins Left: 0
 493000: global: List size is 1
 493000: global: Req Time 493000, Latency 7000
 493000: global: There
 493000: global: 1
 493000: global: 2
 493000: global: Latency 7000
 493000: system.cpu.dcache: MITTS Forward Time: 501000 Request Time: 494000 
 493500: system.cpu.dcache: handleTimingReqMiss 
 493500: system.cpu.dcache: Intial Forward Time: 494500 Request Time: 494500 
 493500: global: Deducting a bin
 493500: global: Bin Chosen: 2
 493500: global: Blocking request
 493500: global: Bins Left: 0
 493500: global: List size is 2
 493500: global: Req Time 493000, Latency 7000
 493500: global: Req Time 493000, Latency 7000
 493500: global: There
 493500: global: 1
 493500: global: 2
 493500: global: Latency 7500
 493500: system.cpu.dcache: MITTS Forward Time: 502000 Request Time: 494500 
 494000: system.cpu.dcache: Creating miss packet
 494000: system.l2: handleTimingReqMiss 
 494000: system.l2: Intial Forward Time: 504500 Request Time: 504500 
 494000: system.l2: MITTS Forward Time: 504500 Request Time: 504500 
 501000: system.cpu.dcache: Creating miss packet
 501000: system.l2: handleTimingReqMiss 
 501000: system.l2: Intial Forward Time: 511500 Request Time: 511500 
 501000: system.l2: MITTS Forward Time: 511500 Request Time: 511500 
 502500: system.l2: Creating miss packet
 504500: system.l2: Creating miss packet
 511500: system.l2: Creating miss packet
 564000: system.cpu.icache: handleTimingReqMiss 
 564000: system.cpu.icache: Intial Forward Time: 565000 Request Time: 565000 
 564000: global: Deducting a bin
 564000: global: Bin Chosen: 2
 564000: global: Blocking request
 564000: global: Bins Left: 0
 564000: global: List size is 0
 564000: global: Here
 564000: global: Latency 6000
 564000: system.cpu.icache: MITTS Forward Time: 571000 Request Time: 565000 
 565500: system.cpu.icache: handleTimingReqMiss 
 565500: system.cpu.icache: Intial Forward Time: 566500 Request Time: 566500 
 565500: global: Deducting a bin
 565500: global: Bin Chosen: 2
 565500: global: Blocking request
 565500: global: Bins Left: 0
 565500: global: List size is 1
 565500: global: Req Time 564000, Latency 6000
 565500: global: There
 565500: global: 1
 565500: global: 2
 565500: global: Latency 7500
 565500: system.cpu.icache: MITTS Forward Time: 574000 Request Time: 566500 
 566000: system.cpu.dcache: handleTimingReqMiss 
 566000: system.cpu.dcache: Intial Forward Time: 567000 Request Time: 567000 
 566000: global: Deducting a bin
 566000: global: Bin Chosen: 2
 566000: global: Bins Left: 1
 566000: system.cpu.dcache: MITTS Forward Time: 567000 Request Time: 567000 
 566000: system.cpu.dcache: handleTimingReqMiss 
 566000: system.cpu.dcache: Intial Forward Time: 567000 Request Time: 567000 
 566000: global: Deducting a bin
 566000: global: Bin Chosen: 0
 566000: global: Bins Left: 0
 566000: system.cpu.dcache: MITTS Forward Time: 567000 Request Time: 567000 
 566000: system.cpu.dcache: handleTimingReqMiss 
 566000: system.cpu.dcache: Intial Forward Time: 567000 Request Time: 567000 
 566000: global: Deducting a bin
 566000: global: Bin Chosen: 0
 566000: global: Blocking request
 566000: global: Bins Left: 0
 566000: global: List size is 0
 566000: global: Here
 566000: global: Latency 4000
 566000: system.cpu.dcache: MITTS Forward Time: 571000 Request Time: 567000 
 566000: system.cpu.dcache: handleTimingReqMiss 
 566000: system.cpu.dcache: Intial Forward Time: 567000 Request Time: 567000 
 566000: global: Deducting a bin
 566000: global: Bin Chosen: 0
 566000: global: Blocking request
 566000: global: Bins Left: 0
 566000: global: List size is 1
 566000: global: Req Time 566000, Latency 4000
 566000: global: There
 566000: global: 1
 566000: global: 2
 566000: global: Latency 4000
 566000: system.cpu.dcache: MITTS Forward Time: 571000 Request Time: 567000 
 567500: system.cpu.dcache: handleTimingReqMiss 
 567500: system.cpu.dcache: Intial Forward Time: 568500 Request Time: 568500 
 567500: global: Deducting a bin
 567500: global: Bin Chosen: 2
 567500: global: Bins Left: 0
 567500: system.cpu.dcache: MITTS Forward Time: 568500 Request Time: 568500 
 568500: system.cpu.dcache: Creating miss packet
 568500: system.l2: handleTimingReqMiss 
 568500: system.l2: Intial Forward Time: 579000 Request Time: 579000 
 568500: system.l2: MITTS Forward Time: 579000 Request Time: 579000 
 569000: system.cpu.dcache: handleTimingReqMiss 
 569000: system.cpu.dcache: Intial Forward Time: 570000 Request Time: 570000 
 569000: global: Deducting a bin
 569000: global: Bin Chosen: 2
 569000: global: Blocking request
 569000: global: Bins Left: 0
 569000: global: List size is 2
 569000: global: Req Time 566000, Latency 4000
 569000: global: Req Time 566000, Latency 4000
 569000: global: There
 569000: global: 1
 569000: global: 2
 569000: global: Latency 7000
 569000: system.cpu.dcache: MITTS Forward Time: 577000 Request Time: 570000 
 571000: system.cpu.icache: Creating miss packet
 571000: system.l2: handleTimingReqMiss 
 571000: system.l2: Intial Forward Time: 582500 Request Time: 582500 
 571000: system.l2: MITTS Forward Time: 582500 Request Time: 582500 
 574000: system.cpu.icache: Creating miss packet
 574000: system.l2: handleTimingReqMiss 
 574000: system.l2: Intial Forward Time: 584500 Request Time: 584500 
 574000: system.l2: MITTS Forward Time: 584500 Request Time: 584500 
 574000: system.cpu.dcache: handleTimingReqMiss 
 574000: system.cpu.dcache: Intial Forward Time: 575000 Request Time: 575000 
 574000: global: Deducting a bin
 574000: global: Bin Chosen: 2
 574000: global: Bins Left: 2
 574000: system.cpu.dcache: MITTS Forward Time: 575000 Request Time: 575000 
 574000: system.cpu.dcache: handleTimingReqMiss 
 574000: system.cpu.dcache: Intial Forward Time: 575000 Request Time: 575000 
 574000: global: Deducting a bin
 574000: global: Bin Chosen: 0
 574000: global: Bins Left: 0
 574000: system.cpu.dcache: MITTS Forward Time: 575000 Request Time: 575000 
 575000: system.cpu.dcache: Creating miss packet
 575000: system.l2: handleTimingReqMiss 
 575000: system.l2: Intial Forward Time: 585500 Request Time: 585500 
 575000: system.l2: MITTS Forward Time: 585500 Request Time: 585500 
 575500: system.cpu.dcache: handleTimingReqMiss 
 575500: system.cpu.dcache: Intial Forward Time: 576500 Request Time: 576500 
 575500: global: Deducting a bin
 575500: global: Bin Chosen: 2
 575500: global: Bins Left: 1
 575500: system.cpu.dcache: MITTS Forward Time: 576500 Request Time: 576500 
 575500: system.cpu.dcache: handleTimingReqMiss 
 575500: system.cpu.dcache: Intial Forward Time: 576500 Request Time: 576500 
 575500: global: Deducting a bin
 575500: global: Bin Chosen: 0
 575500: global: Blocking request
 575500: global: Bins Left: 0
 575500: global: List size is 1
 575500: global: Req Time 569000, Latency 7000
 575500: global: There
 575500: global: 1
 575500: global: 2
 575500: global: Latency 13500
 575500: system.cpu.dcache: MITTS Forward Time: 590000 Request Time: 576500 
 575500: system.cpu.dcache: handleTimingReqMiss 
 575500: system.cpu.dcache: Intial Forward Time: 576500 Request Time: 576500 
 575500: global: Deducting a bin
 575500: global: Bin Chosen: 0
 575500: global: Blocking request
 575500: global: Bins Left: 0
 575500: global: List size is 2
 575500: global: Req Time 569000, Latency 7000
 575500: global: Req Time 575500, Latency 13500
 575500: global: There
 575500: global: 1
 575500: global: 3
 575500: global: Latency 14500
 575500: system.cpu.dcache: MITTS Forward Time: 591000 Request Time: 576500 
 575500: system.cpu.dcache: handleTimingReqMiss 
 575500: system.cpu.dcache: Intial Forward Time: 576500 Request Time: 576500 
 575500: global: Deducting a bin
 575500: global: Bin Chosen: 0
 575500: global: Blocking request
 575500: global: Bins Left: 0
 575500: global: List size is 3
 575500: global: Req Time 569000, Latency 7000
 575500: global: Req Time 575500, Latency 13500
 575500: global: Req Time 575500, Latency 14500
 575500: global: There
 575500: global: 1
 575500: global: 2
 575500: global: Latency 14500
 575500: system.cpu.dcache: MITTS Forward Time: 591000 Request Time: 576500 
 576000: system.cpu.dcache: handleTimingReqMiss 
 576000: system.cpu.dcache: Intial Forward Time: 577000 Request Time: 577000 
 576000: global: Deducting a bin
 576000: global: Bin Chosen: 2
 576000: global: Bins Left: 1
 576000: system.cpu.dcache: MITTS Forward Time: 577000 Request Time: 577000 
 576500: system.cpu.dcache: Creating miss packet
 576500: system.l2: handleTimingReqMiss 
 576500: system.l2: Intial Forward Time: 587000 Request Time: 587000 
 576500: system.l2: MITTS Forward Time: 587000 Request Time: 587000 
 577000: system.cpu.dcache: Creating miss packet
 577000: system.cpu.dcache: Creating miss packet
 577000: system.l2: handleTimingReqMiss 
 577000: system.l2: Intial Forward Time: 587500 Request Time: 587500 
 577000: system.l2: MITTS Forward Time: 587500 Request Time: 587500 
 579000: system.l2: Creating miss packet
 584500: system.l2: Creating miss packet
 585500: system.l2: Creating miss packet
 586000: system.l2: Creating miss packet
 587000: system.l2: Creating miss packet
 587000: system.l2: Creating miss packet
 587500: system.l2: Creating miss packet
 588000: system.l2: Creating miss packet
 641000: system.cpu.icache: handleTimingReqMiss 
 641000: system.cpu.icache: Intial Forward Time: 642000 Request Time: 642000 
 641000: global: Deducting a bin
 641000: global: Bin Chosen: 2
 641000: global: Bins Left: 0
 641000: system.cpu.icache: MITTS Forward Time: 642000 Request Time: 642000 
 642000: system.cpu.icache: Creating miss packet
 642000: system.l2: handleTimingReqMiss 
 642000: system.l2: Intial Forward Time: 652500 Request Time: 652500 
 642000: system.l2: MITTS Forward Time: 652500 Request Time: 652500 
 652500: system.l2: Creating miss packet
 713500: system.cpu.icache: handleTimingReqMiss 
 713500: system.cpu.icache: Intial Forward Time: 714500 Request Time: 714500 
 713500: global: Deducting a bin
 713500: global: Bin Chosen: 2
 713500: global: Blocking request
 713500: global: Bins Left: 0
 713500: global: List size is 0
 713500: global: Here
 713500: global: Latency 6500
 713500: system.cpu.icache: MITTS Forward Time: 721000 Request Time: 714500 
 721000: system.cpu.icache: Creating miss packet
 721000: system.l2: handleTimingReqMiss 
 721000: system.l2: Intial Forward Time: 731500 Request Time: 731500 
 721000: system.l2: MITTS Forward Time: 731500 Request Time: 731500 
 731500: system.l2: Creating miss packet
 795500: system.cpu.icache: handleTimingReqMiss 
 795500: system.cpu.icache: Intial Forward Time: 796500 Request Time: 796500 
 795500: global: Deducting a bin
 795500: global: Bin Chosen: 2
 795500: global: Bins Left: 1
 795500: system.cpu.icache: MITTS Forward Time: 796500 Request Time: 796500 
 796500: system.cpu.icache: Creating miss packet
 796500: system.l2: handleTimingReqMiss 
 796500: system.l2: Intial Forward Time: 807000 Request Time: 807000 
 796500: system.l2: MITTS Forward Time: 807000 Request Time: 807000 
 801500: system.cpu.icache: handleTimingReqMiss 
 801500: system.cpu.icache: Intial Forward Time: 802500 Request Time: 802500 
 801500: global: Deducting a bin
 801500: global: Bin Chosen: 2
 801500: global: Bins Left: 0
 801500: system.cpu.icache: MITTS Forward Time: 802500 Request Time: 802500 
 803000: system.cpu.dcache: handleTimingReqMiss 
 803000: system.cpu.dcache: Intial Forward Time: 804000 Request Time: 804000 
 803000: global: Deducting a bin
 803000: global: Bin Chosen: 2
 803000: global: Bins Left: 2
 803000: system.cpu.dcache: MITTS Forward Time: 804000 Request Time: 804000 
 804000: system.cpu.dcache: Creating miss packet
 804000: system.l2: handleTimingReqMiss 
 804000: system.l2: Intial Forward Time: 814500 Request Time: 814500 
 804000: system.l2: MITTS Forward Time: 814500 Request Time: 814500 
 807000: system.l2: Creating miss packet
 809500: system.cpu.dcache: handleTimingReqMiss 
 809500: system.cpu.dcache: Intial Forward Time: 810500 Request Time: 810500 
 809500: global: Deducting a bin
 809500: global: Bin Chosen: 2
 809500: global: Bins Left: 1
 809500: system.cpu.dcache: MITTS Forward Time: 810500 Request Time: 810500 
 810000: system.cpu.icache: handleTimingReqMiss 
 810000: system.cpu.icache: Intial Forward Time: 811000 Request Time: 811000 
 810000: global: Deducting a bin
 810000: global: Bin Chosen: 2
 810000: global: Blocking request
 810000: global: Bins Left: 0
 810000: global: List size is 0
 810000: global: Here
 810000: global: Latency 10000
 810000: system.cpu.icache: MITTS Forward Time: 821000 Request Time: 811000 
 814500: system.l2: Creating miss packet
 875500: system.cpu.icache: handleTimingReqMiss 
 875500: system.cpu.icache: Intial Forward Time: 876500 Request Time: 876500 
 875500: global: Deducting a bin
 875500: global: Bin Chosen: 2
 875500: global: Bins Left: 1
 875500: system.cpu.icache: MITTS Forward Time: 876500 Request Time: 876500 
 876500: system.cpu.icache: Creating miss packet
 876500: system.l2: handleTimingReqMiss 
 876500: system.l2: Intial Forward Time: 887000 Request Time: 887000 
 876500: system.l2: MITTS Forward Time: 887000 Request Time: 887000 
 884500: system.cpu.icache: handleTimingReqMiss 
 884500: system.cpu.icache: Intial Forward Time: 885500 Request Time: 885500 
 884500: global: Deducting a bin
 884500: global: Bin Chosen: 2
 884500: global: Bins Left: 0
 884500: system.cpu.icache: MITTS Forward Time: 885500 Request Time: 885500 
 885000: system.cpu.dcache: handleTimingReqMiss 
 885000: system.cpu.dcache: Intial Forward Time: 886000 Request Time: 886000 
 885000: global: Deducting a bin
 885000: global: Bin Chosen: 2
 885000: global: Bins Left: 0
 885000: system.cpu.dcache: MITTS Forward Time: 886000 Request Time: 886000 
 886000: system.cpu.dcache: Creating miss packet
 886000: system.l2: handleTimingReqMiss 
 886000: system.l2: Intial Forward Time: 896500 Request Time: 896500 
 886000: system.l2: MITTS Forward Time: 896500 Request Time: 896500 
 887000: system.l2: Creating miss packet
 894500: system.cpu.icache: handleTimingReqMiss 
 894500: system.cpu.icache: Intial Forward Time: 895500 Request Time: 895500 
 894500: global: Deducting a bin
 894500: global: Bin Chosen: 2
 894500: global: Blocking request
 894500: global: Bins Left: 0
 894500: global: List size is 0
 894500: global: Here
 894500: global: Latency 5500
 894500: system.cpu.icache: MITTS Forward Time: 901000 Request Time: 895500 
 896500: system.l2: Creating miss packet
 903500: system.cpu.icache: handleTimingReqMiss 
 903500: system.cpu.icache: Intial Forward Time: 904500 Request Time: 904500 
 903500: global: Deducting a bin
 903500: global: Bin Chosen: 2
 903500: global: Bins Left: 1
 903500: system.cpu.icache: MITTS Forward Time: 904500 Request Time: 904500 
 912500: system.cpu.icache: handleTimingReqMiss 
 912500: system.cpu.icache: Intial Forward Time: 913500 Request Time: 913500 
 912500: global: Deducting a bin
 912500: global: Bin Chosen: 2
 912500: global: Bins Left: 0
 912500: system.cpu.icache: MITTS Forward Time: 913500 Request Time: 913500 
 921500: system.cpu.icache: handleTimingReqMiss 
 921500: system.cpu.icache: Intial Forward Time: 922500 Request Time: 922500 
 921500: global: Deducting a bin
 921500: global: Bin Chosen: 2
 921500: global: Blocking request
 921500: global: Bins Left: 0
 921500: global: List size is 0
 921500: global: Here
 921500: global: Latency 8500
 921500: system.cpu.icache: MITTS Forward Time: 931000 Request Time: 922500 
 930500: system.cpu.icache: handleTimingReqMiss 
 930500: system.cpu.icache: Intial Forward Time: 931500 Request Time: 931500 
 930500: global: Deducting a bin
 930500: global: Bin Chosen: 2
 930500: global: Bins Left: 1
 930500: system.cpu.icache: MITTS Forward Time: 931500 Request Time: 931500 
 959000: system.cpu.icache: handleTimingReqMiss 
 959000: system.cpu.icache: Intial Forward Time: 960000 Request Time: 960000 
 959000: global: Deducting a bin
 959000: global: Bin Chosen: 2
 959000: global: Bins Left: 0
 959000: system.cpu.icache: MITTS Forward Time: 960000 Request Time: 960000 
 960000: system.cpu.icache: Creating miss packet
 988000: system.cpu.icache: handleTimingReqMiss 
 988000: system.cpu.icache: Intial Forward Time: 989000 Request Time: 989000 
 988000: global: Deducting a bin
 988000: global: Bin Chosen: 2
 988000: global: Blocking request
 988000: global: Bins Left: 0
 988000: global: List size is 0
 988000: global: Here
 988000: global: Latency 2000
 988000: system.cpu.icache: MITTS Forward Time: 991000 Request Time: 989000 
 991000: system.cpu.icache: Creating miss packet
 991000: system.l2: handleTimingReqMiss 
 991000: system.l2: Intial Forward Time: 1001500 Request Time: 1001500 
 991000: system.l2: MITTS Forward Time: 1001500 Request Time: 1001500 
1001500: system.l2: Creating miss packet
1004000: system.cpu.icache: handleTimingReqMiss 
1004000: system.cpu.icache: Intial Forward Time: 1005000 Request Time: 1005000 
1004000: global: Deducting a bin
1004000: global: Bin Chosen: 2
1004000: global: Bins Left: 1
1004000: system.cpu.icache: MITTS Forward Time: 1005000 Request Time: 1005000 
1020000: system.cpu.icache: handleTimingReqMiss 
1020000: system.cpu.icache: Intial Forward Time: 1021000 Request Time: 1021000 
1020000: global: Deducting a bin
1020000: global: Bin Chosen: 2
1020000: global: Bins Left: 0
1020000: system.cpu.icache: MITTS Forward Time: 1021000 Request Time: 1021000 
1029500: system.cpu.icache: handleTimingReqMiss 
1029500: system.cpu.icache: Intial Forward Time: 1030500 Request Time: 1030500 
1029500: global: Deducting a bin
1029500: global: Bin Chosen: 2
1029500: global: Blocking request
1029500: global: Bins Left: 0
1029500: global: List size is 0
1029500: global: Here
1029500: global: Latency 500
1029500: system.cpu.icache: MITTS Forward Time: 1031000 Request Time: 1030500 
1031000: system.cpu.icache: Creating miss packet
1055000: system.cpu.dcache: handleTimingReqMiss 
1055000: system.cpu.dcache: Intial Forward Time: 1056000 Request Time: 1056000 
1055000: global: Deducting a bin
1055000: global: Bin Chosen: 2
1055000: global: Blocking request
1055000: global: Bins Left: 0
1055000: global: List size is 0
1055000: global: Here
1055000: global: Latency 5000
1055000: system.cpu.dcache: MITTS Forward Time: 1061000 Request Time: 1056000 
1061000: system.cpu.dcache: Creating miss packet
1073000: system.cpu.dcache: handleTimingReqMiss 
1073000: system.cpu.dcache: Intial Forward Time: 1074000 Request Time: 1074000 
1073000: global: Deducting a bin
1073000: global: Bin Chosen: 2
1073000: global: Bins Left: 1
1073000: system.cpu.dcache: MITTS Forward Time: 1074000 Request Time: 1074000 
1074000: system.cpu.dcache: Creating miss packet
1074000: system.l2: handleTimingReqMiss 
1074000: system.l2: Intial Forward Time: 1084500 Request Time: 1084500 
1074000: system.l2: MITTS Forward Time: 1084500 Request Time: 1084500 
1076500: system.cpu.icache: handleTimingReqMiss 
1076500: system.cpu.icache: Intial Forward Time: 1077500 Request Time: 1077500 
1076500: global: Deducting a bin
1076500: global: Bin Chosen: 2
1076500: global: Bins Left: 1
1076500: system.cpu.icache: MITTS Forward Time: 1077500 Request Time: 1077500 
1077500: system.cpu.icache: Creating miss packet
1084500: system.l2: Creating miss packet
1108500: system.cpu.dcache: handleTimingReqMiss 
1108500: system.cpu.dcache: Intial Forward Time: 1109500 Request Time: 1109500 
1108500: global: Deducting a bin
1108500: global: Bin Chosen: 2
1108500: global: Bins Left: 0
1108500: system.cpu.dcache: MITTS Forward Time: 1109500 Request Time: 1109500 
1115500: system.cpu.dcache: handleTimingReqMiss 
1115500: system.cpu.dcache: Intial Forward Time: 1116500 Request Time: 1116500 
1115500: global: Deducting a bin
1115500: global: Bin Chosen: 2
1115500: global: Blocking request
1115500: global: Bins Left: 0
1115500: global: List size is 0
1115500: global: Here
1115500: global: Latency 4500
1115500: system.cpu.dcache: MITTS Forward Time: 1121000 Request Time: 1116500 
1122000: system.cpu.icache: handleTimingReqMiss 
1122000: system.cpu.icache: Intial Forward Time: 1123000 Request Time: 1123000 
1122000: global: Deducting a bin
1122000: global: Bin Chosen: 2
1122000: global: Bins Left: 0
1122000: system.cpu.icache: MITTS Forward Time: 1123000 Request Time: 1123000 
1123000: system.cpu.icache: Creating miss packet
1123000: system.l2: handleTimingReqMiss 
1123000: system.l2: Intial Forward Time: 1133500 Request Time: 1133500 
1123000: system.l2: MITTS Forward Time: 1133500 Request Time: 1133500 
1133500: system.l2: Creating miss packet
1184500: system.cpu.icache: handleTimingReqMiss 
1184500: system.cpu.icache: Intial Forward Time: 1185500 Request Time: 1185500 
1184500: global: Deducting a bin
1184500: global: Bin Chosen: 2
1184500: global: Blocking request
1184500: global: Bins Left: 0
1184500: global: List size is 0
1184500: global: Here
1184500: global: Latency 5500
1184500: system.cpu.icache: MITTS Forward Time: 1191000 Request Time: 1185500 
1191000: system.cpu.icache: Creating miss packet
1191000: system.l2: handleTimingReqMiss 
1191000: system.l2: Intial Forward Time: 1201500 Request Time: 1201500 
1191000: system.l2: MITTS Forward Time: 1201500 Request Time: 1201500 
1201500: system.l2: Creating miss packet
1317000: system.cpu.icache: handleTimingReqMiss 
1317000: system.cpu.icache: Intial Forward Time: 1318000 Request Time: 1318000 
1317000: global: Deducting a bin
1317000: global: Bin Chosen: 2
1317000: global: Bins Left: 1
1317000: system.cpu.icache: MITTS Forward Time: 1318000 Request Time: 1318000 
1318000: system.cpu.icache: Creating miss packet
1318000: system.l2: handleTimingReqMiss 
1318000: system.l2: Intial Forward Time: 1328500 Request Time: 1328500 
1318000: system.l2: MITTS Forward Time: 1328500 Request Time: 1328500 
1328500: system.l2: Creating miss packet
1336000: system.cpu.icache: handleTimingReqMiss 
1336000: system.cpu.icache: Intial Forward Time: 1337000 Request Time: 1337000 
1336000: global: Deducting a bin
1336000: global: Bin Chosen: 2
1336000: global: Bins Left: 0
1336000: system.cpu.icache: MITTS Forward Time: 1337000 Request Time: 1337000 
1338500: system.cpu.dcache: handleTimingReqMiss 
1338500: system.cpu.dcache: Intial Forward Time: 1339500 Request Time: 1339500 
1338500: global: Deducting a bin
1338500: global: Bin Chosen: 2
1338500: global: Bins Left: 1
1338500: system.cpu.dcache: MITTS Forward Time: 1339500 Request Time: 1339500 
1338500: system.cpu.dcache: handleTimingReqMiss 
1338500: system.cpu.dcache: Intial Forward Time: 1339500 Request Time: 1339500 
1338500: global: Deducting a bin
1338500: global: Bin Chosen: 0
1338500: global: Bins Left: 2
1338500: system.cpu.dcache: MITTS Forward Time: 1339500 Request Time: 1339500 
1339500: system.cpu.dcache: Creating miss packet
1339500: system.l2: handleTimingReqMiss 
1339500: system.l2: Intial Forward Time: 1350000 Request Time: 1350000 
1339500: system.l2: MITTS Forward Time: 1350000 Request Time: 1350000 
1350000: system.l2: Creating miss packet
1391000: system.cpu.icache: handleTimingReqMiss 
1391000: system.cpu.icache: Intial Forward Time: 1392000 Request Time: 1392000 
1391000: global: Deducting a bin
1391000: global: Bin Chosen: 2
1391000: global: Blocking request
1391000: global: Bins Left: 0
1391000: global: List size is 0
1391000: global: Here
1391000: global: Latency 9000
1391000: system.cpu.icache: MITTS Forward Time: 1401000 Request Time: 1392000 
1392500: system.cpu.dcache: handleTimingReqMiss 
1392500: system.cpu.dcache: Intial Forward Time: 1393500 Request Time: 1393500 
1392500: global: Deducting a bin
1392500: global: Bin Chosen: 2
1392500: global: Bins Left: 0
1392500: system.cpu.dcache: MITTS Forward Time: 1393500 Request Time: 1393500 
1395500: system.cpu.dcache: handleTimingReqMiss 
1395500: system.cpu.dcache: Intial Forward Time: 1396500 Request Time: 1396500 
1395500: global: Deducting a bin
1395500: global: Bin Chosen: 2
1395500: global: Blocking request
1395500: global: Bins Left: 0
1395500: global: List size is 0
1395500: global: Here
1395500: global: Latency 4500
1395500: system.cpu.dcache: MITTS Forward Time: 1401000 Request Time: 1396500 
1395500: system.cpu.dcache: handleTimingReqMiss 
1395500: system.cpu.dcache: Intial Forward Time: 1396500 Request Time: 1396500 
1395500: global: Deducting a bin
1395500: global: Bin Chosen: 0
1395500: global: Bins Left: 1
1395500: system.cpu.dcache: MITTS Forward Time: 1396500 Request Time: 1396500 
1396500: system.cpu.dcache: Creating miss packet
1396500: system.l2: handleTimingReqMiss 
1396500: system.l2: Intial Forward Time: 1407000 Request Time: 1407000 
1396500: system.l2: MITTS Forward Time: 1407000 Request Time: 1407000 
1397000: system.cpu.dcache: handleTimingReqMiss 
1397000: system.cpu.dcache: Intial Forward Time: 1398000 Request Time: 1398000 
1397000: global: Deducting a bin
1397000: global: Bin Chosen: 2
1397000: global: Blocking request
1397000: global: Bins Left: 0
1397000: global: List size is 1
1397000: global: Req Time 1395500, Latency 4500
1397000: global: There
1397000: global: 1
1397000: global: 2
1397000: global: Latency 6000
1397000: system.cpu.dcache: MITTS Forward Time: 1404000 Request Time: 1398000 
1398500: system.cpu.dcache: handleTimingReqMiss 
1398500: system.cpu.dcache: Intial Forward Time: 1399500 Request Time: 1399500 
1398500: global: Deducting a bin
1398500: global: Bin Chosen: 2
1398500: global: Blocking request
1398500: global: Bins Left: 0
1398500: global: List size is 2
1398500: global: Req Time 1395500, Latency 4500
1398500: global: Req Time 1397000, Latency 6000
1398500: global: There
1398500: global: 1
1398500: global: 2
1398500: global: Latency 7500
1398500: system.cpu.dcache: MITTS Forward Time: 1407000 Request Time: 1399500 
1398500: system.cpu.dcache: handleTimingReqMiss 
1398500: system.cpu.dcache: Intial Forward Time: 1399500 Request Time: 1399500 
1398500: global: Deducting a bin
1398500: global: Bin Chosen: 0
1398500: global: Bins Left: 0
1398500: system.cpu.dcache: MITTS Forward Time: 1399500 Request Time: 1399500 
1400000: system.cpu.dcache: handleTimingReqMiss 
1400000: system.cpu.dcache: Intial Forward Time: 1401000 Request Time: 1401000 
1400000: global: Deducting a bin
1400000: global: Bin Chosen: 2
1400000: global: Bins Left: 1
1400000: system.cpu.dcache: MITTS Forward Time: 1401000 Request Time: 1401000 
1401000: system.cpu.icache: Creating miss packet
1401000: system.l2: handleTimingReqMiss 
1401000: system.l2: Intial Forward Time: 1411500 Request Time: 1411500 
1401000: system.l2: MITTS Forward Time: 1411500 Request Time: 1411500 
1407000: system.l2: Creating miss packet
1411500: system.l2: Creating miss packet
1424500: system.cpu.dcache: handleTimingReqMiss 
1424500: system.cpu.dcache: Intial Forward Time: 1425500 Request Time: 1425500 
1424500: global: Deducting a bin
1424500: global: Bin Chosen: 2
1424500: global: Blocking request
1424500: global: Bins Left: 0
1424500: global: List size is 0
1424500: global: Here
1424500: global: Latency 5500
1424500: system.cpu.dcache: MITTS Forward Time: 1431000 Request Time: 1425500 
1424500: system.cpu.dcache: handleTimingReqMiss 
1424500: system.cpu.dcache: Intial Forward Time: 1425500 Request Time: 1425500 
1424500: global: Deducting a bin
1424500: global: Bin Chosen: 0
1424500: global: Bins Left: 2
1424500: system.cpu.dcache: MITTS Forward Time: 1425500 Request Time: 1425500 
1425500: system.cpu.dcache: handleTimingReqMiss 
1425500: system.cpu.dcache: Intial Forward Time: 1426500 Request Time: 1426500 
1425500: global: Deducting a bin
1425500: global: Bin Chosen: 2
1425500: global: Blocking request
1425500: global: Bins Left: 0
1425500: global: List size is 1
1425500: global: Req Time 1424500, Latency 5500
1425500: global: There
1425500: global: 1
1425500: global: 2
1425500: global: Latency 6500
1425500: system.cpu.dcache: MITTS Forward Time: 1433000 Request Time: 1426500 
1425500: system.cpu.dcache: handleTimingReqMiss 
1425500: system.cpu.dcache: Intial Forward Time: 1426500 Request Time: 1426500 
1425500: global: Deducting a bin
1425500: global: Bin Chosen: 0
1425500: global: Bins Left: 1
1425500: system.cpu.dcache: MITTS Forward Time: 1426500 Request Time: 1426500 
1427500: system.cpu.icache: handleTimingReqMiss 
1427500: system.cpu.icache: Intial Forward Time: 1428500 Request Time: 1428500 
1427500: global: Deducting a bin
1427500: global: Bin Chosen: 2
1427500: global: Bins Left: 1
1427500: system.cpu.icache: MITTS Forward Time: 1428500 Request Time: 1428500 
1471500: system.cpu.icache: handleTimingReqMiss 
1471500: system.cpu.icache: Intial Forward Time: 1472500 Request Time: 1472500 
1471500: global: Deducting a bin
1471500: global: Bin Chosen: 2
1471500: global: Bins Left: 0
1471500: system.cpu.icache: MITTS Forward Time: 1472500 Request Time: 1472500 
1476500: system.cpu.icache: handleTimingReqMiss 
1476500: system.cpu.icache: Intial Forward Time: 1477500 Request Time: 1477500 
1476500: global: Deducting a bin
1476500: global: Bin Chosen: 2
1476500: global: Blocking request
1476500: global: Bins Left: 0
1476500: global: List size is 0
1476500: global: Here
1476500: global: Latency 3500
1476500: system.cpu.icache: MITTS Forward Time: 1481000 Request Time: 1477500 
1481000: system.cpu.icache: Creating miss packet
1481000: system.l2: handleTimingReqMiss 
1481000: system.l2: Intial Forward Time: 1491500 Request Time: 1491500 
1481000: system.l2: MITTS Forward Time: 1491500 Request Time: 1491500 
1481000: system.cpu.icache: handleTimingReqMiss 
1481000: system.cpu.icache: Intial Forward Time: 1482000 Request Time: 1482000 
1481000: global: Deducting a bin
1481000: global: Bin Chosen: 2
1481000: global: Bins Left: 1
1481000: system.cpu.icache: MITTS Forward Time: 1482000 Request Time: 1482000 
1482000: system.cpu.icache: Creating miss packet
1482000: system.l2: handleTimingReqMiss 
1482000: system.l2: Intial Forward Time: 1492500 Request Time: 1492500 
1482000: system.l2: MITTS Forward Time: 1492500 Request Time: 1492500 
1482500: system.cpu.icache: handleTimingReqMiss 
1482500: system.cpu.icache: Intial Forward Time: 1483500 Request Time: 1483500 
1482500: global: Deducting a bin
1482500: global: Bin Chosen: 2
1482500: global: Bins Left: 0
1482500: system.cpu.icache: MITTS Forward Time: 1483500 Request Time: 1483500 
1483500: system.cpu.icache: Creating miss packet
1483500: system.l2: handleTimingReqMiss 
1483500: system.l2: Intial Forward Time: 1494000 Request Time: 1494000 
1483500: system.l2: MITTS Forward Time: 1494000 Request Time: 1494000 
1491500: system.l2: Creating miss packet
1492500: system.l2: Creating miss packet
1493000: system.l2: Creating miss packet
1494000: system.l2: Creating miss packet
1494000: system.l2: Creating miss packet
1577000: system.cpu.icache: handleTimingReqMiss 
1577000: system.cpu.icache: Intial Forward Time: 1578000 Request Time: 1578000 
1577000: global: Deducting a bin
1577000: global: Bin Chosen: 2
1577000: global: Blocking request
1577000: global: Bins Left: 0
1577000: global: List size is 0
1577000: global: Here
1577000: global: Latency 3000
1577000: system.cpu.icache: MITTS Forward Time: 1581000 Request Time: 1578000 
1578000: system.cpu.icache: handleTimingReqMiss 
1578000: system.cpu.icache: Intial Forward Time: 1579000 Request Time: 1579000 
1578000: global: Deducting a bin
1578000: global: Bin Chosen: 2
1578000: global: Blocking request
1578000: global: Bins Left: 0
1578000: global: List size is 1
1578000: global: Req Time 1577000, Latency 3000
1578000: global: There
1578000: global: 1
1578000: global: 2
1578000: global: Latency 4000
1578000: system.cpu.icache: MITTS Forward Time: 1583000 Request Time: 1579000 
1581000: system.cpu.icache: Creating miss packet
1581000: system.l2: handleTimingReqMiss 
1581000: system.l2: Intial Forward Time: 1591500 Request Time: 1591500 
1581000: system.l2: MITTS Forward Time: 1591500 Request Time: 1591500 
1583000: system.cpu.icache: Creating miss packet
1583000: system.l2: handleTimingReqMiss 
1583000: system.l2: Intial Forward Time: 1593500 Request Time: 1593500 
1583000: system.l2: MITTS Forward Time: 1593500 Request Time: 1593500 
1591500: system.l2: Creating miss packet
1593500: system.l2: Creating miss packet
1658500: system.cpu.icache: handleTimingReqMiss 
1658500: system.cpu.icache: Intial Forward Time: 1659500 Request Time: 1659500 
1658500: global: Deducting a bin
1658500: global: Bin Chosen: 2
1658500: global: Bins Left: 0
1658500: system.cpu.icache: MITTS Forward Time: 1659500 Request Time: 1659500 
1659500: system.cpu.icache: Creating miss packet
1659500: system.l2: handleTimingReqMiss 
1659500: system.l2: Intial Forward Time: 1670000 Request Time: 1670000 
1659500: system.l2: MITTS Forward Time: 1670000 Request Time: 1670000 
1660000: system.cpu.dcache: handleTimingReqMiss 
1660000: system.cpu.dcache: Intial Forward Time: 1661000 Request Time: 1661000 
1660000: global: Deducting a bin
1660000: global: Bin Chosen: 2
1660000: global: Bins Left: 0
1660000: system.cpu.dcache: MITTS Forward Time: 1661000 Request Time: 1661000 
1661000: system.cpu.dcache: Creating miss packet
1661000: system.l2: handleTimingReqMiss 
1661000: system.l2: Intial Forward Time: 1671500 Request Time: 1671500 
1661000: system.l2: MITTS Forward Time: 1671500 Request Time: 1671500 
1661000: system.cpu.dcache: handleTimingReqMiss 
1661000: system.cpu.dcache: Intial Forward Time: 1662000 Request Time: 1662000 
1661000: global: Deducting a bin
1661000: global: Bin Chosen: 2
1661000: global: Blocking request
1661000: global: Bins Left: 0
1661000: global: List size is 0
1661000: global: Here
1661000: global: Latency 9000
1661000: system.cpu.dcache: MITTS Forward Time: 1671000 Request Time: 1662000 
1670000: system.l2: Creating miss packet
1671500: system.l2: Creating miss packet
1731000: system.cpu.icache: handleTimingReqMiss 
1731000: system.cpu.icache: Intial Forward Time: 1732000 Request Time: 1732000 
1731000: global: Deducting a bin
1731000: global: Bin Chosen: 2
1731000: global: Blocking request
1731000: global: Bins Left: 0
1731000: global: List size is 0
1731000: global: Here
1731000: global: Latency 9000
1731000: system.cpu.icache: MITTS Forward Time: 1741000 Request Time: 1732000 
1732000: system.cpu.icache: handleTimingReqMiss 
1732000: system.cpu.icache: Intial Forward Time: 1733000 Request Time: 1733000 
1732000: global: Deducting a bin
1732000: global: Bin Chosen: 2
1732000: global: Blocking request
1732000: global: Bins Left: 0
1732000: global: List size is 1
1732000: global: Req Time 1731000, Latency 9000
1732000: global: There
1732000: global: 1
1732000: global: 2
1732000: global: Latency 10000
1732000: system.cpu.icache: MITTS Forward Time: 1743000 Request Time: 1733000 
1741000: system.cpu.icache: Creating miss packet
1741000: system.l2: handleTimingReqMiss 
1741000: system.l2: Intial Forward Time: 1751500 Request Time: 1751500 
1741000: system.l2: MITTS Forward Time: 1751500 Request Time: 1751500 
1743500: system.cpu.icache: handleTimingReqMiss 
1743500: system.cpu.icache: Intial Forward Time: 1744500 Request Time: 1744500 
1743500: global: Deducting a bin
1743500: global: Bin Chosen: 2
1743500: global: Bins Left: 0
1743500: system.cpu.icache: MITTS Forward Time: 1744500 Request Time: 1744500 
1746000: system.cpu.dcache: handleTimingReqMiss 
1746000: system.cpu.dcache: Intial Forward Time: 1747000 Request Time: 1747000 
1746000: global: Deducting a bin
1746000: global: Bin Chosen: 2
1746000: global: Bins Left: 1
1746000: system.cpu.dcache: MITTS Forward Time: 1747000 Request Time: 1747000 
1746000: system.cpu.dcache: handleTimingReqMiss 
1746000: system.cpu.dcache: Intial Forward Time: 1747000 Request Time: 1747000 
1746000: global: Deducting a bin
1746000: global: Bin Chosen: 0
1746000: global: Bins Left: 2
1746000: system.cpu.dcache: MITTS Forward Time: 1747000 Request Time: 1747000 
1746000: system.cpu.dcache: handleTimingReqMiss 
1746000: system.cpu.dcache: Intial Forward Time: 1747000 Request Time: 1747000 
1746000: global: Deducting a bin
1746000: global: Bin Chosen: 0
1746000: global: Bins Left: 1
1746000: system.cpu.dcache: MITTS Forward Time: 1747000 Request Time: 1747000 
1746000: system.cpu.dcache: handleTimingReqMiss 
1746000: system.cpu.dcache: Intial Forward Time: 1747000 Request Time: 1747000 
1746000: global: Deducting a bin
1746000: global: Bin Chosen: 0
1746000: global: Bins Left: 0
1746000: system.cpu.dcache: MITTS Forward Time: 1747000 Request Time: 1747000 
1746500: system.cpu.dcache: handleTimingReqMiss 
1746500: system.cpu.dcache: Intial Forward Time: 1747500 Request Time: 1747500 
1746500: global: Deducting a bin
1746500: global: Bin Chosen: 2
1746500: global: Bins Left: 0
1746500: system.cpu.dcache: MITTS Forward Time: 1747500 Request Time: 1747500 
1747000: system.cpu.dcache: Creating miss packet
1747000: system.l2: handleTimingReqMiss 
1747000: system.l2: Intial Forward Time: 1757500 Request Time: 1757500 
1747000: system.l2: MITTS Forward Time: 1757500 Request Time: 1757500 
1747001: system.cpu.dcache: Creating miss packet
1747500: system.cpu.dcache: Creating miss packet
1747500: system.l2: handleTimingReqMiss 
1747500: system.l2: Intial Forward Time: 1758000 Request Time: 1758000 
1747500: system.l2: MITTS Forward Time: 1758000 Request Time: 1758000 
1751500: system.l2: Creating miss packet
1757500: system.l2: Creating miss packet
1758000: system.l2: Creating miss packet
1759000: system.l2: Creating miss packet
1813500: system.cpu.icache: handleTimingReqMiss 
1813500: system.cpu.icache: Intial Forward Time: 1814500 Request Time: 1814500 
1813500: global: Deducting a bin
1813500: global: Bin Chosen: 2
1813500: global: Blocking request
1813500: global: Bins Left: 0
1813500: global: List size is 0
1813500: global: Here
1813500: global: Latency 6500
1813500: system.cpu.icache: MITTS Forward Time: 1821000 Request Time: 1814500 
1815000: system.cpu.icache: handleTimingReqMiss 
1815000: system.cpu.icache: Intial Forward Time: 1816000 Request Time: 1816000 
1815000: global: Deducting a bin
1815000: global: Bin Chosen: 2
1815000: global: Blocking request
1815000: global: Bins Left: 0
1815000: global: List size is 1
1815000: global: Req Time 1813500, Latency 6500
1815000: global: There
1815000: global: 1
1815000: global: 2
1815000: global: Latency 8000
1815000: system.cpu.icache: MITTS Forward Time: 1824000 Request Time: 1816000 
1821000: system.cpu.icache: Creating miss packet
1821000: system.l2: handleTimingReqMiss 
1821000: system.l2: Intial Forward Time: 1831500 Request Time: 1831500 
1821000: system.l2: MITTS Forward Time: 1831500 Request Time: 1831500 
1824000: system.cpu.icache: Creating miss packet
1824000: system.l2: handleTimingReqMiss 
1824000: system.l2: Intial Forward Time: 1834500 Request Time: 1834500 
1824000: system.l2: MITTS Forward Time: 1834500 Request Time: 1834500 
1826500: system.cpu.dcache: handleTimingReqMiss 
1826500: system.cpu.dcache: Intial Forward Time: 1827500 Request Time: 1827500 
1826500: global: Deducting a bin
1826500: global: Bin Chosen: 2
1826500: global: Blocking request
1826500: global: Bins Left: 0
1826500: global: List size is 0
1826500: global: Here
1826500: global: Latency 3500
1826500: system.cpu.dcache: MITTS Forward Time: 1831000 Request Time: 1827500 
1827000: system.cpu.dcache: handleTimingReqMiss 
1827000: system.cpu.dcache: Intial Forward Time: 1828000 Request Time: 1828000 
1827000: global: Deducting a bin
1827000: global: Bin Chosen: 2
1827000: global: Blocking request
1827000: global: Bins Left: 0
1827000: global: List size is 1
1827000: global: Req Time 1826500, Latency 3500
1827000: global: There
1827000: global: 1
1827000: global: 2
1827000: global: Latency 4000
1827000: system.cpu.dcache: MITTS Forward Time: 1832000 Request Time: 1828000 
1827500: system.cpu.icache: handleTimingReqMiss 
1827500: system.cpu.icache: Intial Forward Time: 1828500 Request Time: 1828500 
1827500: global: Deducting a bin
1827500: global: Bin Chosen: 2
1827500: global: Bins Left: 0
1827500: system.cpu.icache: MITTS Forward Time: 1828500 Request Time: 1828500 
1827500: system.cpu.dcache: handleTimingReqMiss 
1827500: system.cpu.dcache: Intial Forward Time: 1828500 Request Time: 1828500 
1827500: global: Deducting a bin
1827500: global: Bin Chosen: 2
1827500: global: Blocking request
1827500: global: Bins Left: 0
1827500: global: List size is 2
1827500: global: Req Time 1826500, Latency 3500
1827500: global: Req Time 1827000, Latency 4000
1827500: global: There
1827500: global: 1
1827500: global: 2
1827500: global: Latency 4500
1827500: system.cpu.dcache: MITTS Forward Time: 1833000 Request Time: 1828500 
1828000: system.cpu.dcache: handleTimingReqMiss 
1828000: system.cpu.dcache: Intial Forward Time: 1829000 Request Time: 1829000 
1828000: global: Deducting a bin
1828000: global: Bin Chosen: 2
1828000: global: Blocking request
1828000: global: Bins Left: 0
1828000: global: List size is 3
1828000: global: Req Time 1826500, Latency 3500
1828000: global: Req Time 1827000, Latency 4000
1828000: global: Req Time 1827500, Latency 4500
1828000: global: There
1828000: global: 1
1828000: global: 3
1828000: global: Latency 12000
1828000: system.cpu.dcache: MITTS Forward Time: 1841000 Request Time: 1829000 
1828500: system.cpu.dcache: handleTimingReqMiss 
1828500: system.cpu.dcache: Intial Forward Time: 1829500 Request Time: 1829500 
1828500: global: Deducting a bin
1828500: global: Bin Chosen: 2
1828500: global: Blocking request
1828500: global: Bins Left: 0
1828500: global: List size is 4
1828500: global: Req Time 1826500, Latency 3500
1828500: global: Req Time 1827000, Latency 4000
1828500: global: Req Time 1827500, Latency 4500
1828500: global: Req Time 1828000, Latency 12000
1828500: global: There
1828500: global: 1
1828500: global: 2
1828500: global: Latency 12500
1828500: system.cpu.dcache: MITTS Forward Time: 1842000 Request Time: 1829500 
1829000: system.cpu.dcache: handleTimingReqMiss 
1829000: system.cpu.dcache: Intial Forward Time: 1830000 Request Time: 1830000 
1829000: global: Deducting a bin
1829000: global: Bin Chosen: 2
1829000: global: Blocking request
1829000: global: Bins Left: 0
1829000: global: List size is 5
1829000: global: Req Time 1826500, Latency 3500
1829000: global: Req Time 1827000, Latency 4000
1829000: global: Req Time 1827500, Latency 4500
1829000: global: Req Time 1828000, Latency 12000
1829000: global: Req Time 1828500, Latency 12500
1829000: global: There
1829000: global: 1
1829000: global: 2
1829000: global: Latency 13000
1829000: system.cpu.dcache: MITTS Forward Time: 1843000 Request Time: 1830000 
1829500: system.cpu.dcache: handleTimingReqMiss 
1829500: system.cpu.dcache: Intial Forward Time: 1830500 Request Time: 1830500 
1829500: global: Deducting a bin
1829500: global: Bin Chosen: 2
1829500: global: Blocking request
1829500: global: Bins Left: 0
1829500: global: List size is 6
1829500: global: Req Time 1826500, Latency 3500
1829500: global: Req Time 1827000, Latency 4000
1829500: global: Req Time 1827500, Latency 4500
1829500: global: Req Time 1828000, Latency 12000
1829500: global: Req Time 1828500, Latency 12500
1829500: global: Req Time 1829000, Latency 13000
1829500: global: There
1829500: global: 1
1829500: global: 3
1829500: global: Latency 20500
1829500: system.cpu.dcache: MITTS Forward Time: 1851000 Request Time: 1830500 
1831000: system.cpu.dcache: Creating miss packet
1831000: system.l2: handleTimingReqMiss 
1831000: system.l2: Intial Forward Time: 1841500 Request Time: 1841500 
1831000: system.l2: MITTS Forward Time: 1841500 Request Time: 1841500 
1831500: system.l2: Creating miss packet
1831500: system.cpu.icache: handleTimingReqMiss 
1831500: system.cpu.icache: Intial Forward Time: 1832500 Request Time: 1832500 
1831500: global: Deducting a bin
1831500: global: Bin Chosen: 2
1831500: global: Blocking request
1831500: global: Bins Left: 0
1831500: global: List size is 0
1831500: global: Here
1831500: global: Latency 8500
1831500: system.cpu.icache: MITTS Forward Time: 1841000 Request Time: 1832500 
1833000: system.cpu.dcache: Creating miss packet
1833000: system.l2: handleTimingReqMiss 
1833000: system.l2: Intial Forward Time: 1843500 Request Time: 1843500 
1833000: system.l2: MITTS Forward Time: 1843500 Request Time: 1843500 
1834500: system.l2: Creating miss packet
1841500: system.l2: Creating miss packet
1842000: system.cpu.dcache: Creating miss packet
1842000: system.l2: handleTimingReqMiss 
1842000: system.l2: Intial Forward Time: 1852500 Request Time: 1852500 
1842000: system.l2: MITTS Forward Time: 1852500 Request Time: 1852500 
1843500: system.l2: Creating miss packet
1852500: system.l2: Creating miss packet
1907500: system.cpu.icache: handleTimingReqMiss 
1907500: system.cpu.icache: Intial Forward Time: 1908500 Request Time: 1908500 
1907500: global: Deducting a bin
1907500: global: Bin Chosen: 2
1907500: global: Bins Left: 1
1907500: system.cpu.icache: MITTS Forward Time: 1908500 Request Time: 1908500 
1908500: system.cpu.icache: Creating miss packet
1908500: system.l2: handleTimingReqMiss 
1908500: system.l2: Intial Forward Time: 1919000 Request Time: 1919000 
1908500: system.l2: MITTS Forward Time: 1919000 Request Time: 1919000 
1909000: system.cpu.icache: handleTimingReqMiss 
1909000: system.cpu.icache: Intial Forward Time: 1910000 Request Time: 1910000 
1909000: global: Deducting a bin
1909000: global: Bin Chosen: 2
1909000: global: Bins Left: 0
1909000: system.cpu.icache: MITTS Forward Time: 1910000 Request Time: 1910000 
1910000: system.cpu.icache: Creating miss packet
1910000: system.l2: handleTimingReqMiss 
1910000: system.l2: Intial Forward Time: 1920500 Request Time: 1920500 
1910000: system.l2: MITTS Forward Time: 1920500 Request Time: 1920500 
1911000: system.cpu.dcache: handleTimingReqMiss 
1911000: system.cpu.dcache: Intial Forward Time: 1912000 Request Time: 1912000 
1911000: global: Deducting a bin
1911000: global: Bin Chosen: 2
1911000: global: Bins Left: 1
1911000: system.cpu.dcache: MITTS Forward Time: 1912000 Request Time: 1912000 
1912000: system.cpu.dcache: Creating miss packet
1912000: system.l2: handleTimingReqMiss 
1912000: system.l2: Intial Forward Time: 1922500 Request Time: 1922500 
1912000: system.l2: MITTS Forward Time: 1922500 Request Time: 1922500 
1919000: system.l2: Creating miss packet
1920500: system.l2: Creating miss packet
1922500: system.l2: Creating miss packet
1932000: system.cpu.icache: handleTimingReqMiss 
1932000: system.cpu.icache: Intial Forward Time: 1933000 Request Time: 1933000 
1932000: global: Deducting a bin
1932000: global: Bin Chosen: 2
1932000: global: Blocking request
1932000: global: Bins Left: 0
1932000: global: List size is 0
1932000: global: Here
1932000: global: Latency 8000
1932000: system.cpu.icache: MITTS Forward Time: 1941000 Request Time: 1933000 
1936500: system.cpu.icache: handleTimingReqMiss 
1936500: system.cpu.icache: Intial Forward Time: 1937500 Request Time: 1937500 
1936500: global: Deducting a bin
1936500: global: Bin Chosen: 2
1936500: global: Blocking request
1936500: global: Bins Left: 0
1936500: global: List size is 1
1936500: global: Req Time 1932000, Latency 8000
1936500: global: There
1936500: global: 1
1936500: global: 2
1936500: global: Latency 12500
1936500: system.cpu.icache: MITTS Forward Time: 1950000 Request Time: 1937500 
1941500: system.cpu.icache: handleTimingReqMiss 
1941500: system.cpu.icache: Intial Forward Time: 1942500 Request Time: 1942500 
1941500: global: Deducting a bin
1941500: global: Bin Chosen: 2
1941500: global: Bins Left: 1
1941500: system.cpu.icache: MITTS Forward Time: 1942500 Request Time: 1942500 
1942500: system.cpu.icache: Creating miss packet
1942500: system.l2: handleTimingReqMiss 
1942500: system.l2: Intial Forward Time: 1953000 Request Time: 1953000 
1942500: system.l2: MITTS Forward Time: 1953000 Request Time: 1953000 
1950000: system.cpu.icache: Creating miss packet
1950000: system.l2: handleTimingReqMiss 
1950000: system.l2: Intial Forward Time: 1960500 Request Time: 1960500 
1950000: system.l2: MITTS Forward Time: 1960500 Request Time: 1960500 
1953000: system.l2: Creating miss packet
1960500: system.l2: Creating miss packet
2021500: system.cpu.icache: handleTimingReqMiss 
2021500: system.cpu.icache: Intial Forward Time: 2022500 Request Time: 2022500 
2021500: global: Deducting a bin
2021500: global: Bin Chosen: 2
2021500: global: Bins Left: 0
2021500: system.cpu.icache: MITTS Forward Time: 2022500 Request Time: 2022500 
2022500: system.cpu.icache: Creating miss packet
2022500: system.l2: handleTimingReqMiss 
2022500: system.l2: Intial Forward Time: 2033000 Request Time: 2033000 
2022500: system.l2: MITTS Forward Time: 2033000 Request Time: 2033000 
2033000: system.l2: Creating miss packet
2097000: system.cpu.icache: handleTimingReqMiss 
2097000: system.cpu.icache: Intial Forward Time: 2098000 Request Time: 2098000 
2097000: global: Deducting a bin
2097000: global: Bin Chosen: 2
2097000: global: Blocking request
2097000: global: Bins Left: 0
2097000: global: List size is 0
2097000: global: Here
2097000: global: Latency 3000
2097000: system.cpu.icache: MITTS Forward Time: 2101000 Request Time: 2098000 
2099500: system.cpu.dcache: handleTimingReqMiss 
2099500: system.cpu.dcache: Intial Forward Time: 2100500 Request Time: 2100500 
2099500: global: Deducting a bin
2099500: global: Bin Chosen: 2
2099500: global: Bins Left: 0
2099500: system.cpu.dcache: MITTS Forward Time: 2100500 Request Time: 2100500 
2100500: system.cpu.dcache: Creating miss packet
2100500: system.l2: handleTimingReqMiss 
2100500: system.l2: Intial Forward Time: 2111000 Request Time: 2111000 
2100500: system.l2: MITTS Forward Time: 2111000 Request Time: 2111000 
2101000: system.cpu.icache: Creating miss packet
2101000: system.l2: handleTimingReqMiss 
2101000: system.l2: Intial Forward Time: 2111500 Request Time: 2111500 
2101000: system.l2: MITTS Forward Time: 2111500 Request Time: 2111500 
2111000: system.l2: Creating miss packet
2111500: system.l2: Creating miss packet
2112000: system.l2: Creating miss packet
2179000: system.cpu.dcache: handleTimingReqMiss 
2179000: system.cpu.dcache: Intial Forward Time: 2180000 Request Time: 2180000 
2179000: global: Deducting a bin
2179000: global: Bin Chosen: 2
2179000: global: Blocking request
2179000: global: Bins Left: 0
2179000: global: List size is 0
2179000: global: Here
2179000: global: Latency 1000
2179000: system.cpu.dcache: MITTS Forward Time: 2181000 Request Time: 2180000 
2179500: system.cpu.icache: handleTimingReqMiss 
2179500: system.cpu.icache: Intial Forward Time: 2180500 Request Time: 2180500 
2179500: global: Deducting a bin
2179500: global: Bin Chosen: 2
2179500: global: Bins Left: 1
2179500: system.cpu.icache: MITTS Forward Time: 2180500 Request Time: 2180500 
2180500: system.cpu.icache: Creating miss packet
2180500: system.l2: handleTimingReqMiss 
2180500: system.l2: Intial Forward Time: 2191000 Request Time: 2191000 
2180500: system.l2: MITTS Forward Time: 2191000 Request Time: 2191000 
2181000: system.cpu.dcache: Creating miss packet
2181000: system.l2: handleTimingReqMiss 
2181000: system.l2: Intial Forward Time: 2191500 Request Time: 2191500 
2181000: system.l2: MITTS Forward Time: 2191500 Request Time: 2191500 
2181000: system.cpu.icache: handleTimingReqMiss 
2181000: system.cpu.icache: Intial Forward Time: 2182000 Request Time: 2182000 
2181000: global: Deducting a bin
2181000: global: Bin Chosen: 2
2181000: global: Bins Left: 0
2181000: system.cpu.icache: MITTS Forward Time: 2182000 Request Time: 2182000 
2182000: system.cpu.icache: Creating miss packet
2191000: system.l2: Creating miss packet
2191500: system.l2: Creating miss packet
2192000: system.l2: Creating miss packet
2196500: system.cpu.icache: handleTimingReqMiss 
2196500: system.cpu.icache: Intial Forward Time: 2197500 Request Time: 2197500 
2196500: global: Deducting a bin
2196500: global: Bin Chosen: 2
2196500: global: Blocking request
2196500: global: Bins Left: 0
2196500: global: List size is 0
2196500: global: Here
2196500: global: Latency 3500
2196500: system.cpu.icache: MITTS Forward Time: 2201000 Request Time: 2197500 
2197500: system.cpu.dcache: handleTimingReqMiss 
2197500: system.cpu.dcache: Intial Forward Time: 2198500 Request Time: 2198500 
2197500: global: Deducting a bin
2197500: global: Bin Chosen: 2
2197500: global: Bins Left: 1
2197500: system.cpu.dcache: MITTS Forward Time: 2198500 Request Time: 2198500 
2201000: system.cpu.icache: Creating miss packet
2201000: system.l2: handleTimingReqMiss 
2201000: system.l2: Intial Forward Time: 2211500 Request Time: 2211500 
2201000: system.l2: MITTS Forward Time: 2211500 Request Time: 2211500 
2211500: system.l2: Creating miss packet
2264000: system.cpu.icache: handleTimingReqMiss 
2264000: system.cpu.icache: Intial Forward Time: 2265000 Request Time: 2265000 
2264000: global: Deducting a bin
2264000: global: Bin Chosen: 2
2264000: global: Bins Left: 1
2264000: system.cpu.icache: MITTS Forward Time: 2265000 Request Time: 2265000 
2265000: system.cpu.icache: handleTimingReqMiss 
2265000: system.cpu.icache: Intial Forward Time: 2266000 Request Time: 2266000 
2265000: global: Deducting a bin
2265000: global: Bin Chosen: 2
2265000: global: Bins Left: 0
2265000: system.cpu.icache: MITTS Forward Time: 2266000 Request Time: 2266000 
2301500: system.cpu.icache: handleTimingReqMiss 
2301500: system.cpu.icache: Intial Forward Time: 2302500 Request Time: 2302500 
2301500: global: Deducting a bin
2301500: global: Bin Chosen: 2
2301500: global: Blocking request
2301500: global: Bins Left: 0
2301500: global: List size is 0
2301500: global: Here
2301500: global: Latency 8500
2301500: system.cpu.icache: MITTS Forward Time: 2311000 Request Time: 2302500 
2305500: system.cpu.dcache: handleTimingReqMiss 
2305500: system.cpu.dcache: Intial Forward Time: 2306500 Request Time: 2306500 
2305500: global: Deducting a bin
2305500: global: Bin Chosen: 2
2305500: global: Bins Left: 0
2305500: system.cpu.dcache: MITTS Forward Time: 2306500 Request Time: 2306500 
2306500: system.cpu.dcache: Creating miss packet
2306500: system.l2: handleTimingReqMiss 
2306500: system.l2: Intial Forward Time: 2317000 Request Time: 2317000 
2306500: system.l2: MITTS Forward Time: 2317000 Request Time: 2317000 
2311000: system.cpu.icache: Creating miss packet
2311000: system.l2: handleTimingReqMiss 
2311000: system.l2: Intial Forward Time: 2321500 Request Time: 2321500 
2311000: system.l2: MITTS Forward Time: 2321500 Request Time: 2321500 
2317000: system.l2: Creating miss packet
2321500: system.l2: Creating miss packet
2392500: system.cpu.dcache: handleTimingReqMiss 
2392500: system.cpu.dcache: Intial Forward Time: 2393500 Request Time: 2393500 
2392500: global: Deducting a bin
2392500: global: Bin Chosen: 2
2392500: global: Blocking request
2392500: global: Bins Left: 0
2392500: global: List size is 0
2392500: global: Here
2392500: global: Latency 7500
2392500: system.cpu.dcache: MITTS Forward Time: 2401000 Request Time: 2393500 
2401000: system.cpu.dcache: Creating miss packet
2401000: system.l2: handleTimingReqMiss 
2401000: system.l2: Intial Forward Time: 2411500 Request Time: 2411500 
2401000: system.l2: MITTS Forward Time: 2411500 Request Time: 2411500 
2411500: system.l2: Creating miss packet
2506500: system.cpu.icache: handleTimingReqMiss 
2506500: system.cpu.icache: Intial Forward Time: 2507500 Request Time: 2507500 
2506500: global: Deducting a bin
2506500: global: Bin Chosen: 2
2506500: global: Bins Left: 1
2506500: system.cpu.icache: MITTS Forward Time: 2507500 Request Time: 2507500 
2507500: system.cpu.icache: Creating miss packet
2507500: system.l2: handleTimingReqMiss 
2507500: system.l2: Intial Forward Time: 2518000 Request Time: 2518000 
2507500: system.l2: MITTS Forward Time: 2518000 Request Time: 2518000 
2509500: system.cpu.dcache: handleTimingReqMiss 
2509500: system.cpu.dcache: Intial Forward Time: 2510500 Request Time: 2510500 
2509500: global: Deducting a bin
2509500: global: Bin Chosen: 2
2509500: global: Bins Left: 1
2509500: system.cpu.dcache: MITTS Forward Time: 2510500 Request Time: 2510500 
2510000: system.cpu.dcache: handleTimingReqMiss 
2510000: system.cpu.dcache: Intial Forward Time: 2511000 Request Time: 2511000 
2510000: global: Deducting a bin
2510000: global: Bin Chosen: 2
2510000: global: Bins Left: 0
2510000: system.cpu.dcache: MITTS Forward Time: 2511000 Request Time: 2511000 
2510000: system.cpu.dcache: handleTimingReqMiss 
2510000: system.cpu.dcache: Intial Forward Time: 2511000 Request Time: 2511000 
2510000: global: Deducting a bin
2510000: global: Bin Chosen: 0
2510000: global: Bins Left: 2
2510000: system.cpu.dcache: MITTS Forward Time: 2511000 Request Time: 2511000 
2510500: system.cpu.dcache: Creating miss packet
2510500: system.l2: handleTimingReqMiss 
2510500: system.l2: Intial Forward Time: 2521000 Request Time: 2521000 
2510500: system.l2: MITTS Forward Time: 2521000 Request Time: 2521000 
2511000: system.cpu.dcache: Creating miss packet
2511000: system.cpu.dcache: Creating miss packet
2511000: system.l2: handleTimingReqMiss 
2511000: system.l2: Intial Forward Time: 2521500 Request Time: 2521500 
2511000: system.l2: MITTS Forward Time: 2521500 Request Time: 2521500 
2511001: system.cpu.dcache: Creating miss packet
2511500: system.cpu.dcache: Creating miss packet
2511500: system.l2: handleTimingReqMiss 
2511500: system.l2: Intial Forward Time: 2522000 Request Time: 2522000 
2511500: system.l2: MITTS Forward Time: 2522000 Request Time: 2522000 
2511500: system.cpu.dcache: handleTimingReqMiss 
2511500: system.cpu.dcache: Intial Forward Time: 2512500 Request Time: 2512500 
2511500: global: Deducting a bin
2511500: global: Bin Chosen: 2
2511500: global: Blocking request
2511500: global: Bins Left: 0
2511500: global: List size is 0
2511500: global: Here
2511500: global: Latency 8500
2511500: system.cpu.dcache: MITTS Forward Time: 2521000 Request Time: 2512500 
2518000: system.l2: Creating miss packet
2521000: system.l2: Creating miss packet
2521500: system.l2: Creating miss packet
2522000: system.l2: Creating miss packet
2522001: system.l2: Creating miss packet
2523000: system.l2: Creating miss packet
2606500: system.cpu.icache: handleTimingReqMiss 
2606500: system.cpu.icache: Intial Forward Time: 2607500 Request Time: 2607500 
2606500: global: Deducting a bin
2606500: global: Bin Chosen: 2
2606500: global: Bins Left: 0
2606500: system.cpu.icache: MITTS Forward Time: 2607500 Request Time: 2607500 
2607500: system.cpu.icache: Creating miss packet
2607500: system.l2: handleTimingReqMiss 
2607500: system.l2: Intial Forward Time: 2618000 Request Time: 2618000 
2607500: system.l2: MITTS Forward Time: 2618000 Request Time: 2618000 
2618000: system.l2: Creating miss packet
2680500: system.cpu.icache: handleTimingReqMiss 
2680500: system.cpu.icache: Intial Forward Time: 2681500 Request Time: 2681500 
2680500: global: Deducting a bin
2680500: global: Bin Chosen: 2
2680500: global: Blocking request
2680500: global: Bins Left: 0
2680500: global: List size is 0
2680500: global: Here
2680500: global: Latency 9500
2680500: system.cpu.icache: MITTS Forward Time: 2691000 Request Time: 2681500 
2681500: system.cpu.icache: handleTimingReqMiss 
2681500: system.cpu.icache: Intial Forward Time: 2682500 Request Time: 2682500 
2681500: global: Deducting a bin
2681500: global: Bin Chosen: 2
2681500: global: Blocking request
2681500: global: Bins Left: 0
2681500: global: List size is 1
2681500: global: Req Time 2680500, Latency 9500
2681500: global: There
2681500: global: 1
2681500: global: 2
2681500: global: Latency 10500
2681500: system.cpu.icache: MITTS Forward Time: 2693000 Request Time: 2682500 
2681500: system.cpu.dcache: handleTimingReqMiss 
2681500: system.cpu.dcache: Intial Forward Time: 2682500 Request Time: 2682500 
2681500: global: Deducting a bin
2681500: global: Bin Chosen: 2
2681500: global: Bins Left: 1
2681500: system.cpu.dcache: MITTS Forward Time: 2682500 Request Time: 2682500 
2681500: system.cpu.dcache: handleTimingReqMiss 
2681500: system.cpu.dcache: Intial Forward Time: 2682500 Request Time: 2682500 
2681500: global: Deducting a bin
2681500: global: Bin Chosen: 0
2681500: global: Bins Left: 2
2681500: system.cpu.dcache: MITTS Forward Time: 2682500 Request Time: 2682500 
2682500: system.cpu.dcache: Creating miss packet
2682500: system.l2: handleTimingReqMiss 
2682500: system.l2: Intial Forward Time: 2693000 Request Time: 2693000 
2682500: system.l2: MITTS Forward Time: 2693000 Request Time: 2693000 
2684000: system.cpu.icache: handleTimingReqMiss 
2684000: system.cpu.icache: Intial Forward Time: 2685000 Request Time: 2685000 
2684000: global: Deducting a bin
2684000: global: Bin Chosen: 2
2684000: global: Blocking request
2684000: global: Bins Left: 0
2684000: global: List size is 2
2684000: global: Req Time 2680500, Latency 9500
2684000: global: Req Time 2681500, Latency 10500
2684000: global: There
2684000: global: 1
2684000: global: 2
2684000: global: Latency 13000
2684000: system.cpu.icache: MITTS Forward Time: 2698000 Request Time: 2685000 
2689500: system.cpu.icache: handleTimingReqMiss 
2689500: system.cpu.icache: Intial Forward Time: 2690500 Request Time: 2690500 
2689500: global: Deducting a bin
2689500: global: Bin Chosen: 2
2689500: global: Blocking request
2689500: global: Bins Left: 0
2689500: global: List size is 3
2689500: global: Req Time 2680500, Latency 9500
2689500: global: Req Time 2681500, Latency 10500
2689500: global: Req Time 2684000, Latency 13000
2689500: global: There
2689500: global: 1
2689500: global: 3
2689500: global: Latency 10500
2689500: system.cpu.icache: MITTS Forward Time: 2701000 Request Time: 2690500 
2691000: system.cpu.icache: Creating miss packet
2691000: system.l2: handleTimingReqMiss 
2691000: system.l2: Intial Forward Time: 2701500 Request Time: 2701500 
2691000: system.l2: MITTS Forward Time: 2701500 Request Time: 2701500 
2693000: system.cpu.icache: Creating miss packet
2693000: system.l2: handleTimingReqMiss 
2693000: system.l2: Intial Forward Time: 2703500 Request Time: 2703500 
2693000: system.l2: MITTS Forward Time: 2703500 Request Time: 2703500 
2693000: system.l2: Creating miss packet
2701500: system.l2: Creating miss packet
2703500: system.l2: Creating miss packet
2764500: system.cpu.icache: handleTimingReqMiss 
2764500: system.cpu.icache: Intial Forward Time: 2765500 Request Time: 2765500 
2764500: global: Deducting a bin
2764500: global: Bin Chosen: 2
2764500: global: Bins Left: 1
2764500: system.cpu.icache: MITTS Forward Time: 2765500 Request Time: 2765500 
2773000: system.cpu.icache: handleTimingReqMiss 
2773000: system.cpu.icache: Intial Forward Time: 2774000 Request Time: 2774000 
2773000: global: Deducting a bin
2773000: global: Bin Chosen: 2
2773000: global: Bins Left: 0
2773000: system.cpu.icache: MITTS Forward Time: 2774000 Request Time: 2774000 
2773000: system.cpu.dcache: handleTimingReqMiss 
2773000: system.cpu.dcache: Intial Forward Time: 2774000 Request Time: 2774000 
2773000: global: Deducting a bin
2773000: global: Bin Chosen: 2
2773000: global: Bins Left: 0
2773000: system.cpu.dcache: MITTS Forward Time: 2774000 Request Time: 2774000 
2773500: system.cpu.dcache: handleTimingReqMiss 
2773500: system.cpu.dcache: Intial Forward Time: 2774500 Request Time: 2774500 
2773500: global: Deducting a bin
2773500: global: Bin Chosen: 2
2773500: global: Blocking request
2773500: global: Bins Left: 0
2773500: global: List size is 0
2773500: global: Here
2773500: global: Latency 6500
2773500: system.cpu.dcache: MITTS Forward Time: 2781000 Request Time: 2774500 
2774000: system.cpu.dcache: Creating miss packet
2774000: system.l2: handleTimingReqMiss 
2774000: system.l2: Intial Forward Time: 2784500 Request Time: 2784500 
2774000: system.l2: MITTS Forward Time: 2784500 Request Time: 2784500 
2774000: system.cpu.icache: Creating miss packet
2774000: system.cpu.icache: handleTimingReqMiss 
2774000: system.cpu.icache: Intial Forward Time: 2775000 Request Time: 2775000 
2774000: global: Deducting a bin
2774000: global: Bin Chosen: 2
2774000: global: Blocking request
2774000: global: Bins Left: 0
2774000: global: List size is 0
2774000: global: Here
2774000: global: Latency 6000
2774000: system.cpu.icache: MITTS Forward Time: 2781000 Request Time: 2775000 
2774000: system.cpu.dcache: handleTimingReqMiss 
2774000: system.cpu.dcache: Intial Forward Time: 2775000 Request Time: 2775000 
2774000: global: Deducting a bin
2774000: global: Bin Chosen: 2
2774000: global: Blocking request
2774000: global: Bins Left: 0
2774000: global: List size is 1
2774000: global: Req Time 2773500, Latency 6500
2774000: global: There
2774000: global: 1
2774000: global: 2
2774000: global: Latency 7000
2774000: system.cpu.dcache: MITTS Forward Time: 2782000 Request Time: 2775000 
2774500: system.cpu.icache: Creating miss packet
2774500: system.l2: handleTimingReqMiss 
2774500: system.l2: Intial Forward Time: 2785000 Request Time: 2785000 
2774500: system.l2: MITTS Forward Time: 2785000 Request Time: 2785000 
2774500: system.cpu.dcache: handleTimingReqMiss 
[...]
16861000: system.l2: Intial Forward Time: 16871500 Request Time: 16871500 
16861000: system.l2: MITTS Forward Time: 16871500 Request Time: 16871500 
16869000: system.l2: Creating miss packet
16869500: system.l2: Creating miss packet
16870000: system.l2: Creating miss packet
16871500: system.l2: Creating miss packet
16943500: system.cpu.icache: handleTimingReqMiss 
16943500: system.cpu.icache: Intial Forward Time: 16944500 Request Time: 16944500 
16943500: global: Deducting a bin
16943500: global: Bin Chosen: 2
16943500: global: Bins Left: 0
16943500: system.cpu.icache: MITTS Forward Time: 16944500 Request Time: 16944500 
16944500: system.cpu.icache: Creating miss packet
16944500: system.l2: handleTimingReqMiss 
16944500: system.l2: Intial Forward Time: 16955000 Request Time: 16955000 
16944500: system.l2: MITTS Forward Time: 16955000 Request Time: 16955000 
16945500: system.cpu.icache: handleTimingReqMiss 
16945500: system.cpu.icache: Intial Forward Time: 16946500 Request Time: 16946500 
16945500: global: Deducting a bin
16945500: global: Bin Chosen: 2
16945500: global: Blocking request
16945500: global: Bins Left: 0
16945500: global: List size is 0
16945500: global: Here
16945500: global: Latency 4500
16945500: system.cpu.icache: MITTS Forward Time: 16951000 Request Time: 16946500 
16950000: system.cpu.icache: handleTimingReqMiss 
16950000: system.cpu.icache: Intial Forward Time: 16951000 Request Time: 16951000 
16950000: global: Deducting a bin
16950000: global: Bin Chosen: 2
16950000: global: Bins Left: 1
16950000: system.cpu.icache: MITTS Forward Time: 16951000 Request Time: 16951000 
16951000: system.cpu.icache: Creating miss packet
16951000: system.l2: handleTimingReqMiss 
16951000: system.l2: Intial Forward Time: 16961500 Request Time: 16961500 
16951000: system.l2: MITTS Forward Time: 16961500 Request Time: 16961500 
16951001: system.cpu.icache: Creating miss packet
16951500: system.cpu.icache: Creating miss packet
16951500: system.l2: handleTimingReqMiss 
16951500: system.l2: Intial Forward Time: 16962000 Request Time: 16962000 
16951500: system.l2: MITTS Forward Time: 16962000 Request Time: 16962000 
16955000: system.l2: Creating miss packet
16961500: system.l2: Creating miss packet
16962000: system.l2: Creating miss packet
16963000: system.l2: Creating miss packet
17040000: system.cpu.dcache: handleTimingReqMiss 
17040000: system.cpu.dcache: Intial Forward Time: 17041000 Request Time: 17041000 
17040000: global: Deducting a bin
17040000: global: Bin Chosen: 2
17040000: global: Blocking request
17040000: global: Bins Left: 0
17040000: global: List size is 0
17040000: global: Here
17040000: global: Latency 10000
17040000: system.cpu.dcache: MITTS Forward Time: 17051000 Request Time: 17041000 
17040000: system.cpu.dcache: handleTimingReqMiss 
17040000: system.cpu.dcache: Intial Forward Time: 17041000 Request Time: 17041000 
17040000: global: Deducting a bin
17040000: global: Bin Chosen: 0
17040000: global: Blocking request
17040000: global: Bins Left: 0
17040000: global: List size is 1
17040000: global: Req Time 17040000, Latency 10000
17040000: global: There
17040000: global: 1
17040000: global: 2
17040000: global: Latency 10000
17040000: system.cpu.dcache: MITTS Forward Time: 17051000 Request Time: 17041000 
17040000: system.cpu.dcache: handleTimingReqMiss 
17040000: system.cpu.dcache: Intial Forward Time: 17041000 Request Time: 17041000 
17040000: global: Deducting a bin
17040000: global: Bin Chosen: 0
17040000: global: Blocking request
17040000: global: Bins Left: 0
17040000: global: List size is 2
17040000: global: Req Time 17040000, Latency 10000
17040000: global: Req Time 17040000, Latency 10000
17040000: global: There
17040000: global: 1
17040000: global: 2
17040000: global: Latency 10000
17040000: system.cpu.dcache: MITTS Forward Time: 17051000 Request Time: 17041000 
17042500: system.cpu.dcache: handleTimingReqMiss 
17042500: system.cpu.dcache: Intial Forward Time: 17043500 Request Time: 17043500 
17042500: global: Deducting a bin
17042500: global: Bin Chosen: 2
17042500: global: Blocking request
17042500: global: Bins Left: 0
17042500: global: List size is 3
17042500: global: Req Time 17040000, Latency 10000
17042500: global: Req Time 17040000, Latency 10000
17042500: global: Req Time 17040000, Latency 10000
17042500: global: There
17042500: global: 1
17042500: global: 2
17042500: global: Latency 12500
17042500: system.cpu.dcache: MITTS Forward Time: 17056000 Request Time: 17043500 
17051000: system.cpu.dcache: Creating miss packet
17051000: system.l2: handleTimingReqMiss 
17051000: system.l2: Intial Forward Time: 17061500 Request Time: 17061500 
17051000: system.l2: MITTS Forward Time: 17061500 Request Time: 17061500 
17051001: system.cpu.dcache: Creating miss packet
17051500: system.cpu.dcache: Creating miss packet
17051500: system.l2: handleTimingReqMiss 
17051500: system.l2: Intial Forward Time: 17062000 Request Time: 17062000 
17051500: system.l2: MITTS Forward Time: 17062000 Request Time: 17062000 
17061500: system.l2: Creating miss packet
17062000: system.l2: Creating miss packet
17063000: system.l2: Creating miss packet
17133000: system.cpu.icache: handleTimingReqMiss 
17133000: system.cpu.icache: Intial Forward Time: 17134000 Request Time: 17134000 
17133000: global: Deducting a bin
17133000: global: Bin Chosen: 2
17133000: global: Bins Left: 0
17133000: system.cpu.icache: MITTS Forward Time: 17134000 Request Time: 17134000 
17134000: system.cpu.icache: Creating miss packet
17134000: system.l2: handleTimingReqMiss 
17134000: system.l2: Intial Forward Time: 17144500 Request Time: 17144500 
17134000: system.l2: MITTS Forward Time: 17144500 Request Time: 17144500 
17142000: system.cpu.icache: handleTimingReqMiss 
17142000: system.cpu.icache: Intial Forward Time: 17143000 Request Time: 17143000 
17142000: global: Deducting a bin
17142000: global: Bin Chosen: 2
17142000: global: Blocking request
17142000: global: Bins Left: 0
17142000: global: List size is 0
17142000: global: Here
17142000: global: Latency 8000
17142000: system.cpu.icache: MITTS Forward Time: 17151000 Request Time: 17143000 
17144500: system.l2: Creating miss packet
17151000: system.cpu.icache: Creating miss packet
17151000: system.l2: handleTimingReqMiss 
17151000: system.l2: Intial Forward Time: 17161500 Request Time: 17161500 
17151000: system.l2: MITTS Forward Time: 17161500 Request Time: 17161500 
17161500: system.l2: Creating miss packet
17225500: system.cpu.icache: handleTimingReqMiss 
17225500: system.cpu.icache: Intial Forward Time: 17226500 Request Time: 17226500 
17225500: global: Deducting a bin
17225500: global: Bin Chosen: 2
17225500: global: Bins Left: 1
17225500: system.cpu.icache: MITTS Forward Time: 17226500 Request Time: 17226500 
17226500: system.cpu.icache: Creating miss packet
17226500: system.l2: handleTimingReqMiss 
17226500: system.l2: Intial Forward Time: 17237000 Request Time: 17237000 
17226500: system.l2: MITTS Forward Time: 17237000 Request Time: 17237000 
17232500: system.cpu.icache: handleTimingReqMiss 
17232500: system.cpu.icache: Intial Forward Time: 17233500 Request Time: 17233500 
17232500: global: Deducting a bin
17232500: global: Bin Chosen: 2
17232500: global: Bins Left: 0
17232500: system.cpu.icache: MITTS Forward Time: 17233500 Request Time: 17233500 
17236000: system.cpu.dcache: handleTimingReqMiss 
17236000: system.cpu.dcache: Intial Forward Time: 17237000 Request Time: 17237000 
17236000: global: Deducting a bin
17236000: global: Bin Chosen: 2
17236000: global: Bins Left: 0
17236000: system.cpu.dcache: MITTS Forward Time: 17237000 Request Time: 17237000 
17236000: system.cpu.dcache: handleTimingReqMiss 
17236000: system.cpu.dcache: Intial Forward Time: 17237000 Request Time: 17237000 
17236000: global: Deducting a bin
17236000: global: Bin Chosen: 0
17236000: global: Bins Left: 0
17236000: system.cpu.dcache: MITTS Forward Time: 17237000 Request Time: 17237000 
17236000: system.cpu.dcache: handleTimingReqMiss 
17236000: system.cpu.dcache: Intial Forward Time: 17237000 Request Time: 17237000 
17236000: global: Deducting a bin
17236000: global: Bin Chosen: 0
17236000: global: Blocking request
17236000: global: Bins Left: 0
17236000: global: List size is 0
17236000: global: Here
17236000: global: Latency 4000
17236000: system.cpu.dcache: MITTS Forward Time: 17241000 Request Time: 17237000 
17237000: system.cpu.dcache: Creating miss packet
17237000: system.l2: handleTimingReqMiss 
17237000: system.l2: Intial Forward Time: 17247500 Request Time: 17247500 
17237000: system.l2: MITTS Forward Time: 17247500 Request Time: 17247500 
17237000: system.l2: Creating miss packet
17247500: system.l2: Creating miss packet
17298500: system.cpu.icache: handleTimingReqMiss 
17298500: system.cpu.icache: Intial Forward Time: 17299500 Request Time: 17299500 
17298500: global: Deducting a bin
17298500: global: Bin Chosen: 2
17298500: global: Blocking request
17298500: global: Bins Left: 0
17298500: global: List size is 0
17298500: global: Here
17298500: global: Latency 1500
17298500: system.cpu.icache: MITTS Forward Time: 17301000 Request Time: 17299500 
17301000: system.cpu.icache: Creating miss packet
17301000: system.l2: handleTimingReqMiss 
17301000: system.l2: Intial Forward Time: 17311500 Request Time: 17311500 
17301000: system.l2: MITTS Forward Time: 17311500 Request Time: 17311500 
17303500: system.cpu.icache: handleTimingReqMiss 
17303500: system.cpu.icache: Intial Forward Time: 17304500 Request Time: 17304500 
17303500: global: Deducting a bin
17303500: global: Bin Chosen: 2
17303500: global: Bins Left: 1
17303500: system.cpu.icache: MITTS Forward Time: 17304500 Request Time: 17304500 
17304500: system.cpu.icache: Creating miss packet
17307500: system.cpu.icache: handleTimingReqMiss 
17307500: system.cpu.icache: Intial Forward Time: 17308500 Request Time: 17308500 
17307500: global: Deducting a bin
17307500: global: Bin Chosen: 2
17307500: global: Bins Left: 0
17307500: system.cpu.icache: MITTS Forward Time: 17308500 Request Time: 17308500 
17311500: system.l2: Creating miss packet
17314000: system.cpu.icache: handleTimingReqMiss 
17314000: system.cpu.icache: Intial Forward Time: 17315000 Request Time: 17315000 
17314000: global: Deducting a bin
17314000: global: Bin Chosen: 2
17314000: global: Blocking request
17314000: global: Bins Left: 0
17314000: global: List size is 0
17314000: global: Here
17314000: global: Latency 6000
17314000: system.cpu.icache: MITTS Forward Time: 17321000 Request Time: 17315000 
17321000: system.cpu.icache: Creating miss packet
17321000: system.l2: handleTimingReqMiss 
17321000: system.l2: Intial Forward Time: 17331500 Request Time: 17331500 
17321000: system.l2: MITTS Forward Time: 17331500 Request Time: 17331500 
17331500: system.l2: Creating miss packet
17396500: system.cpu.icache: handleTimingReqMiss 
17396500: system.cpu.icache: Intial Forward Time: 17397500 Request Time: 17397500 
17396500: global: Deducting a bin
17396500: global: Bin Chosen: 2
17396500: global: Bins Left: 1
17396500: system.cpu.icache: MITTS Forward Time: 17397500 Request Time: 17397500 
17397500: system.cpu.icache: Creating miss packet
17416500: system.cpu.icache: handleTimingReqMiss 
17416500: system.cpu.icache: Intial Forward Time: 17417500 Request Time: 17417500 
17416500: global: Deducting a bin
17416500: global: Bin Chosen: 2
17416500: global: Bins Left: 0
17416500: system.cpu.icache: MITTS Forward Time: 17417500 Request Time: 17417500 
17417500: system.cpu.icache: Creating miss packet
17417500: system.l2: handleTimingReqMiss 
17417500: system.l2: Intial Forward Time: 17428000 Request Time: 17428000 
17417500: system.l2: MITTS Forward Time: 17428000 Request Time: 17428000 
17418500: system.cpu.icache: handleTimingReqMiss 
17418500: system.cpu.icache: Intial Forward Time: 17419500 Request Time: 17419500 
17418500: global: Deducting a bin
17418500: global: Bin Chosen: 2
17418500: global: Blocking request
17418500: global: Bins Left: 0
17418500: global: List size is 0
17418500: global: Here
17418500: global: Latency 1500
17418500: system.cpu.icache: MITTS Forward Time: 17421000 Request Time: 17419500 
17421000: system.cpu.icache: Creating miss packet
17428000: system.l2: Creating miss packet
17439000: system.cpu.icache: handleTimingReqMiss 
17439000: system.cpu.icache: Intial Forward Time: 17440000 Request Time: 17440000 
17439000: global: Deducting a bin
17439000: global: Bin Chosen: 2
17439000: global: Bins Left: 1
17439000: system.cpu.icache: MITTS Forward Time: 17440000 Request Time: 17440000 
17440500: system.cpu.icache: handleTimingReqMiss 
17440500: system.cpu.icache: Intial Forward Time: 17441500 Request Time: 17441500 
17440500: global: Deducting a bin
17440500: global: Bin Chosen: 2
17440500: global: Bins Left: 0
17440500: system.cpu.icache: MITTS Forward Time: 17441500 Request Time: 17441500 
17510000: system.cpu.icache: handleTimingReqMiss 
17510000: system.cpu.icache: Intial Forward Time: 17511000 Request Time: 17511000 
17510000: global: Deducting a bin
17510000: global: Bin Chosen: 2
17510000: global: Blocking request
17510000: global: Bins Left: 0
17510000: global: List size is 0
17510000: global: Here
17510000: global: Latency 10000
17510000: system.cpu.icache: MITTS Forward Time: 17521000 Request Time: 17511000 
17521000: system.cpu.icache: Creating miss packet
17521000: system.l2: handleTimingReqMiss 
17521000: system.l2: Intial Forward Time: 17531500 Request Time: 17531500 
17521000: system.l2: MITTS Forward Time: 17531500 Request Time: 17531500 
17531500: system.l2: Creating miss packet
17592500: system.cpu.icache: handleTimingReqMiss 
17592500: system.cpu.icache: Intial Forward Time: 17593500 Request Time: 17593500 
17592500: global: Deducting a bin
17592500: global: Bin Chosen: 2
17592500: global: Bins Left: 1
17592500: system.cpu.icache: MITTS Forward Time: 17593500 Request Time: 17593500 
17593500: system.cpu.icache: Creating miss packet
17593500: system.l2: handleTimingReqMiss 
17593500: system.l2: Intial Forward Time: 17604000 Request Time: 17604000 
17593500: system.l2: MITTS Forward Time: 17604000 Request Time: 17604000 
17604000: system.l2: Creating miss packet
17665000: system.cpu.icache: handleTimingReqMiss 
17665000: system.cpu.icache: Intial Forward Time: 17666000 Request Time: 17666000 
17665000: global: Deducting a bin
17665000: global: Bin Chosen: 2
17665000: global: Bins Left: 0
17665000: system.cpu.icache: MITTS Forward Time: 17666000 Request Time: 17666000 
17666000: system.cpu.icache: Creating miss packet
17669000: system.cpu.icache: handleTimingReqMiss 
17669000: system.cpu.icache: Intial Forward Time: 17670000 Request Time: 17670000 
17669000: global: Deducting a bin
17669000: global: Bin Chosen: 2
17669000: global: Blocking request
17669000: global: Bins Left: 0
17669000: global: List size is 0
17669000: global: Here
17669000: global: Latency 1000
17669000: system.cpu.icache: MITTS Forward Time: 17671000 Request Time: 17670000 
17671000: system.cpu.icache: Creating miss packet
17671000: system.l2: handleTimingReqMiss 
17671000: system.l2: Intial Forward Time: 17681500 Request Time: 17681500 
17671000: system.l2: MITTS Forward Time: 17681500 Request Time: 17681500 
17675000: system.cpu.icache: handleTimingReqMiss 
17675000: system.cpu.icache: Intial Forward Time: 17676000 Request Time: 17676000 
17675000: global: Deducting a bin
17675000: global: Bin Chosen: 2
17675000: global: Bins Left: 1
17675000: system.cpu.icache: MITTS Forward Time: 17676000 Request Time: 17676000 
17676000: system.cpu.icache: Creating miss packet
17676000: system.l2: handleTimingReqMiss 
17676000: system.l2: Intial Forward Time: 17686500 Request Time: 17686500 
17676000: system.l2: MITTS Forward Time: 17686500 Request Time: 17686500 
17681500: system.l2: Creating miss packet
17686500: system.l2: Creating miss packet
17777500: system.cpu.icache: handleTimingReqMiss 
17777500: system.cpu.icache: Intial Forward Time: 17778500 Request Time: 17778500 
17777500: global: Deducting a bin
17777500: global: Bin Chosen: 2
17777500: global: Bins Left: 0
17777500: system.cpu.icache: MITTS Forward Time: 17778500 Request Time: 17778500 
17778500: system.cpu.icache: Creating miss packet
17778500: system.l2: handleTimingReqMiss 
17778500: system.l2: Intial Forward Time: 17789000 Request Time: 17789000 
17778500: system.l2: MITTS Forward Time: 17789000 Request Time: 17789000 
17782000: system.cpu.icache: handleTimingReqMiss 
17782000: system.cpu.icache: Intial Forward Time: 17783000 Request Time: 17783000 
17782000: global: Deducting a bin
17782000: global: Bin Chosen: 2
17782000: global: Blocking request
17782000: global: Bins Left: 0
17782000: global: List size is 0
17782000: global: Here
17782000: global: Latency 8000
17782000: system.cpu.icache: MITTS Forward Time: 17791000 Request Time: 17783000 
17787000: system.cpu.icache: handleTimingReqMiss 
17787000: system.cpu.icache: Intial Forward Time: 17788000 Request Time: 17788000 
17787000: global: Deducting a bin
17787000: global: Bin Chosen: 2
17787000: global: Blocking request
17787000: global: Bins Left: 0
17787000: global: List size is 1
17787000: global: Req Time 17782000, Latency 8000
17787000: global: There
17787000: global: 1
17787000: global: 2
17787000: global: Latency 13000
17787000: system.cpu.icache: MITTS Forward Time: 17801000 Request Time: 17788000 
17789000: system.l2: Creating miss packet
17791000: system.cpu.icache: Creating miss packet
17791000: system.l2: handleTimingReqMiss 
17791000: system.l2: Intial Forward Time: 17801500 Request Time: 17801500 
17791000: system.l2: MITTS Forward Time: 17801500 Request Time: 17801500 
17801000: system.cpu.icache: Creating miss packet
17801000: system.l2: handleTimingReqMiss 
17801000: system.l2: Intial Forward Time: 17811500 Request Time: 17811500 
17801000: system.l2: MITTS Forward Time: 17811500 Request Time: 17811500 
17801500: system.l2: Creating miss packet
17811500: system.l2: Creating miss packet
17873000: system.cpu.icache: handleTimingReqMiss 
17873000: system.cpu.icache: Intial Forward Time: 17874000 Request Time: 17874000 
17873000: global: Deducting a bin
17873000: global: Bin Chosen: 2
17873000: global: Bins Left: 0
17873000: system.cpu.icache: MITTS Forward Time: 17874000 Request Time: 17874000 
17874000: system.cpu.icache: Creating miss packet
17874000: system.l2: handleTimingReqMiss 
17874000: system.l2: Intial Forward Time: 17884500 Request Time: 17884500 
17874000: system.l2: MITTS Forward Time: 17884500 Request Time: 17884500 
17884500: system.l2: Creating miss packet
17973000: system.cpu.dcache: handleTimingReqMiss 
17973000: system.cpu.dcache: Intial Forward Time: 17974000 Request Time: 17974000 
17973000: global: Deducting a bin
17973000: global: Bin Chosen: 2
17973000: global: Bins Left: 2
17973000: system.cpu.dcache: MITTS Forward Time: 17974000 Request Time: 17974000 
17973000: system.cpu.dcache: handleTimingReqMiss 
17973000: system.cpu.dcache: Intial Forward Time: 17974000 Request Time: 17974000 
17973000: global: Deducting a bin
17973000: global: Bin Chosen: 0
17973000: global: Bins Left: 1
17973000: system.cpu.dcache: MITTS Forward Time: 17974000 Request Time: 17974000 
17974000: system.cpu.dcache: Creating miss packet
17974000: system.l2: handleTimingReqMiss 
17974000: system.l2: Intial Forward Time: 17984500 Request Time: 17984500 
17974000: system.l2: MITTS Forward Time: 17984500 Request Time: 17984500 
17984500: system.l2: Creating miss packet
17991000: system.cpu.dcache: handleTimingReqMiss 
17991000: system.cpu.dcache: Intial Forward Time: 17992000 Request Time: 17992000 
17991000: global: Deducting a bin
17991000: global: Bin Chosen: 2
17991000: global: Bins Left: 1
17991000: system.cpu.dcache: MITTS Forward Time: 17992000 Request Time: 17992000 
17992000: system.cpu.dcache: Creating miss packet
Exiting @ tick 18058500 because exiting with last active thread context
Simulated exit code not 0! Exit code is 13
